<additional><routeProbe edge="774868639" file="output-routeprobe.xml" freq="5" id="cali_edge1_probe" /><calibrator edge="774868639" freq="2" id="calibtest_edge" pos="0" routeProbe="cali_edge1_probe"><route edges="774868639" id="cali1_fallback" /><flow begin="0" departPos="free" departSpeed="7.789709220336509" end="1800" route="cali1_fallback" speed="7.789709220336509" vehsPerHour="3600" /><flow begin="1800" departPos="free" departSpeed="7.789709220336509" end="3600" route="cali1_fallback" speed="7.789709220336509" vehsPerHour="3600" /><flow begin="3600" departPos="free" departSpeed="7.789709220336509" end="5400" route="cali1_fallback" speed="7.789709220336509" vehsPerHour="3600" /><flow begin="5400" departPos="free" departSpeed="7.789709220336509" end="7200" route="cali1_fallback" speed="7.789709220336509" vehsPerHour="3600" /><flow begin="7200" departPos="free" departSpeed="7.789709220336509" end="9000" route="cali1_fallback" speed="7.789709220336509" vehsPerHour="3600" /><flow begin="9000" departPos="free" departSpeed="7.789709220336509" end="10800" route="cali1_fallback" speed="7.789709220336509" vehsPerHour="3600" /><flow begin="10800" departPos="free" departSpeed="7.789709220336509" end="12600" route="cali1_fallback" speed="7.789709220336509" vehsPerHour="3600" /><flow begin="12600" departPos="free" departSpeed="7.789709220336509" end="14400" route="cali1_fallback" speed="7.789709220336509" vehsPerHour="3600" /><flow begin="14400" departPos="free" departSpeed="7.789709220336509" end="16200" route="cali1_fallback" speed="7.789709220336509" vehsPerHour="3600" /><flow begin="16200" departPos="free" departSpeed="7.789709220336509" end="18000" route="cali1_fallback" speed="7.789709220336509" vehsPerHour="3600" /><flow begin="18000" departPos="free" departSpeed="7.789709220336509" end="19800" route="cali1_fallback" speed="7.789709220336509" vehsPerHour="3600" /><flow begin="19800" departPos="free" departSpeed="7.789709220336509" end="21600" route="cali1_fallback" speed="7.789709220336509" vehsPerHour="3600" /><flow begin="21600" departPos="free" departSpeed="5.876447306569647" end="23400" route="cali1_fallback" speed="5.876447306569647" vehsPerHour="3600" /><flow begin="23400" departPos="free" departSpeed="5.876447306569647" end="25200" route="cali1_fallback" speed="5.876447306569647" vehsPerHour="3600" /><flow begin="25200" departPos="free" departSpeed="3.9406764291114107" end="27000" route="cali1_fallback" speed="3.9406764291114107" vehsPerHour="3600" /><flow begin="27000" departPos="free" departSpeed="3.9406764291114107" end="28800" route="cali1_fallback" speed="3.9406764291114107" vehsPerHour="3600" /><flow begin="28800" departPos="free" departSpeed="3.9406764291114107" end="30600" route="cali1_fallback" speed="3.9406764291114107" vehsPerHour="3600" /><flow begin="30600" departPos="free" departSpeed="3.9406764291114107" end="32400" route="cali1_fallback" speed="3.9406764291114107" vehsPerHour="3600" /><flow begin="32400" departPos="free" departSpeed="5.876447306569647" end="34200" route="cali1_fallback" speed="5.876447306569647" vehsPerHour="3600" /><flow begin="34200" departPos="free" departSpeed="5.876447306569647" end="36000" route="cali1_fallback" speed="5.876447306569647" vehsPerHour="3600" /><flow begin="36000" departPos="free" departSpeed="5.876447306569647" end="37800" route="cali1_fallback" speed="5.876447306569647" vehsPerHour="3600" /><flow begin="37800" departPos="free" departSpeed="5.876447306569647" end="39600" route="cali1_fallback" speed="5.876447306569647" vehsPerHour="3600" /><flow begin="39600" departPos="free" departSpeed="5.876447306569647" end="41400" route="cali1_fallback" speed="5.876447306569647" vehsPerHour="3600" /><flow begin="41400" departPos="free" departSpeed="5.876447306569647" end="43200" route="cali1_fallback" speed="5.876447306569647" vehsPerHour="3600" /><flow begin="43200" departPos="free" departSpeed="5.876447306569647" end="45000" route="cali1_fallback" speed="5.876447306569647" vehsPerHour="3600" /><flow begin="45000" departPos="free" departSpeed="5.876447306569647" end="46800" route="cali1_fallback" speed="5.876447306569647" vehsPerHour="3600" /><flow begin="46800" departPos="free" departSpeed="5.876447306569647" end="48600" route="cali1_fallback" speed="5.876447306569647" vehsPerHour="3600" /><flow begin="48600" departPos="free" departSpeed="5.876447306569647" end="50400" route="cali1_fallback" speed="5.876447306569647" vehsPerHour="3600" /><flow begin="50400" departPos="free" departSpeed="5.876447306569647" end="52200" route="cali1_fallback" speed="5.876447306569647" vehsPerHour="3600" /><flow begin="52200" departPos="free" departSpeed="5.876447306569647" end="54000" route="cali1_fallback" speed="5.876447306569647" vehsPerHour="3600" /><flow begin="54000" departPos="free" departSpeed="5.876447306569647" end="55800" route="cali1_fallback" speed="5.876447306569647" vehsPerHour="3600" /><flow begin="55800" departPos="free" departSpeed="5.876447306569647" end="57600" route="cali1_fallback" speed="5.876447306569647" vehsPerHour="3600" /><flow begin="57600" departPos="free" departSpeed="5.876447306569647" end="59400" route="cali1_fallback" speed="5.876447306569647" vehsPerHour="3600" /><flow begin="59400" departPos="free" departSpeed="5.876447306569647" end="61200" route="cali1_fallback" speed="5.876447306569647" vehsPerHour="3600" /><flow begin="61200" departPos="free" departSpeed="5.876447306569647" end="63000" route="cali1_fallback" speed="5.876447306569647" vehsPerHour="3600" /><flow begin="63000" departPos="free" departSpeed="5.876447306569647" end="64800" route="cali1_fallback" speed="5.876447306569647" vehsPerHour="3600" /><flow begin="64800" departPos="free" departSpeed="3.9406764291114107" end="66600" route="cali1_fallback" speed="3.9406764291114107" vehsPerHour="3600" /><flow begin="66600" departPos="free" departSpeed="3.9406764291114107" end="68400" route="cali1_fallback" speed="3.9406764291114107" vehsPerHour="3600" /><flow begin="68400" departPos="free" departSpeed="3.9406764291114107" end="70200" route="cali1_fallback" speed="3.9406764291114107" vehsPerHour="3600" /><flow begin="70200" departPos="free" departSpeed="3.9406764291114107" end="72000" route="cali1_fallback" speed="3.9406764291114107" vehsPerHour="3600" /><flow begin="72000" departPos="free" departSpeed="5.876447306569647" end="73800" route="cali1_fallback" speed="5.876447306569647" vehsPerHour="3600" /><flow begin="73800" departPos="free" departSpeed="5.876447306569647" end="75600" route="cali1_fallback" speed="5.876447306569647" vehsPerHour="3600" /><flow begin="75600" departPos="free" departSpeed="7.789709220336509" end="77400" route="cali1_fallback" speed="7.789709220336509" vehsPerHour="3600" /><flow begin="77400" departPos="free" departSpeed="7.789709220336509" end="79200" route="cali1_fallback" speed="7.789709220336509" vehsPerHour="3600" /><flow begin="79200" departPos="free" departSpeed="7.789709220336509" end="81000" route="cali1_fallback" speed="7.789709220336509" vehsPerHour="3600" /><flow begin="81000" departPos="free" departSpeed="7.789709220336509" end="82800" route="cali1_fallback" speed="7.789709220336509" vehsPerHour="3600" /><flow begin="82800" departPos="free" departSpeed="7.789709220336509" end="84600" route="cali1_fallback" speed="7.789709220336509" vehsPerHour="3600" /><flow begin="84600" departPos="free" departSpeed="7.789709220336509" end="86400" route="cali1_fallback" speed="7.789709220336509" vehsPerHour="3600" /></calibrator></additional>