<?xml version="1.0" encoding="UTF-8"?>

<!-- generated on 02/25/20 18:57:26 by Eclipse SUMO netconvert Version 1.3.1
<configuration xmlns:xsi="http://www.w3.org/2001/XMLSchema-instance" xsi:noNamespaceSchemaLocation="http://sumo.dlr.de/xsd/netconvertConfiguration.xsd">

    <input>
        <osm-files value="macul.osm"/>
    </input>

    <output>
        <output-file value="macul.net.xml"/>
        <plain-output-prefix value="macul"/>
    </output>

    <projection>
        <proj.utm value="true"/>
    </projection>

    <processing>
        <numerical-ids value="true"/>
        <geometry.remove value="true"/>
    </processing>

    <tls_building>
        <tls.discard-simple value="true"/>
        <tls.join value="true"/>
        <tls.guess-signals value="true"/>
    </tls_building>

    <ramp_guessing>
        <ramps.guess value="true"/>
    </ramp_guessing>

    <junctions>
        <junctions.join value="true"/>
    </junctions>

</configuration>
-->

<nodes version="1.3" xmlns:xsi="http://www.w3.org/2001/XMLSchema-instance" xsi:noNamespaceSchemaLocation="http://sumo.dlr.de/xsd/nodes_file.xsd">
    <location netOffset="-349272.32,3708978.53" convBoundary="0.00,0.00,4201.44,4466.56" origBoundary="-70.622229,-33.510165,-70.576884,-33.470053" projParameter="+proj=utm +zone=19 +ellps=WGS84 +datum=WGS84 +units=m +no_defs"/>

    <node id="1070220238" x="1463.87" y="2764.66" type="priority"/>
    <node id="1127119844" x="777.88" y="3899.99" type="priority"/>
    <node id="1251819767" x="2815.81" y="1291.81" type="priority"/>
    <node id="1274918945" x="4027.81" y="3409.86" type="dead_end"/>
    <node id="1274918992" x="4025.69" y="3392.10" type="dead_end"/>
    <node id="1274919025" x="3942.12" y="2882.57" type="dead_end"/>
    <node id="1274919046" x="4106.28" y="3900.95" type="dead_end"/>
    <node id="1274983595" x="3820.01" y="2450.80" type="dead_end"/>
    <node id="1274983641" x="3729.27" y="2038.79" type="dead_end"/>
    <node id="1365105168" x="3085.59" y="1140.49" type="priority"/>
    <node id="1365105177" x="3090.57" y="1154.64" type="priority"/>
    <node id="1365107173" x="3231.09" y="1041.49" type="priority"/>
    <node id="1365107174" x="3068.65" y="1057.00" type="priority"/>
    <node id="1365107175" x="3213.92" y="947.22" type="priority"/>
    <node id="1365107181" x="3226.84" y="987.24" type="priority"/>
    <node id="1365107184" x="3130.92" y="1006.56" type="dead_end"/>
    <node id="1365107186" x="3020.16" y="1023.95" type="priority"/>
    <node id="1399445838" x="3786.73" y="2998.22" type="priority"/>
    <node id="1399445840" x="3784.46" y="3018.18" type="priority"/>
    <node id="1413573251" x="1269.12" y="3752.56" type="priority"/>
    <node id="1413573255" x="666.51" y="3903.28" type="dead_end"/>
    <node id="1413573256" x="1123.24" y="3809.96" type="priority"/>
    <node id="14760642" x="381.26" y="2427.18" type="priority"/>
    <node id="148837308" x="2523.24" y="4034.50" type="priority"/>
    <node id="148839427" x="3128.10" y="3434.83" type="priority"/>
    <node id="148839429" x="3129.51" y="3359.56" type="traffic_light" tl="148839429"/>
    <node id="148844055" x="3329.37" y="3815.14" type="priority"/>
    <node id="148848179" x="1514.95" y="3409.17" type="traffic_light" tl="148848179"/>
    <node id="148848181" x="1509.45" y="3106.45" type="traffic_light" tl="148848181"/>
    <node id="148848190" x="963.63" y="2589.49" type="priority"/>
    <node id="148848194" x="901.05" y="2728.21" type="traffic_light" tl="joinedS_0"/>
    <node id="148848196" x="882.87" y="2956.85" type="traffic_light" tl="joinedS_1"/>
    <node id="148848249" x="868.14" y="2725.03" type="traffic_light" tl="joinedS_0"/>
    <node id="148849135" x="1645.55" y="2768.45" type="priority"/>
    <node id="148849137" x="1962.08" y="2776.78" type="priority"/>
    <node id="148849139" x="1472.95" y="1677.56" type="priority"/>
    <node id="148849142" x="1462.06" y="1601.93" type="traffic_light" tl="148849142"/>
    <node id="148849147" x="1147.31" y="1840.69" type="priority"/>
    <node id="148849178" x="1388.06" y="1668.43" type="priority"/>
    <node id="148849182" x="1519.45" y="1547.58" type="priority"/>
    <node id="1529079898" x="841.34" y="2634.52" type="priority"/>
    <node id="1529079914" x="844.70" y="2612.48" type="right_before_left"/>
    <node id="1529079920" x="907.08" y="2587.20" type="right_before_left"/>
    <node id="1539530458" x="2438.50" y="3690.10" type="priority"/>
    <node id="16106390" x="972.44" y="179.94" type="traffic_light" tl="16106390"/>
    <node id="1686326858" x="636.19" y="2062.61" type="priority"/>
    <node id="1686326861" x="579.11" y="2326.97" type="priority"/>
    <node id="1686406507" x="943.26" y="2086.24" type="priority"/>
    <node id="16967594" x="4201.44" y="4406.87" type="dead_end"/>
    <node id="16967600" x="3503.71" y="4070.65" type="priority"/>
    <node id="16967605" x="4157.79" y="4466.50" type="dead_end"/>
    <node id="1699120161" x="1262.00" y="1408.41" type="right_before_left"/>
    <node id="1699120166" x="1301.17" y="1376.76" type="priority"/>
    <node id="1699122060" x="680.07" y="1190.78" type="priority"/>
    <node id="1699122073" x="1199.05" y="994.89" type="right_before_left"/>
    <node id="1699122078" x="1194.61" y="940.80" type="priority"/>
    <node id="1699122080" x="766.74" y="1016.49" type="priority"/>
    <node id="1699122086" x="860.81" y="1023.84" type="right_before_left"/>
    <node id="1699122087" x="1189.20" y="1001.60" type="right_before_left"/>
    <node id="1699122093" x="1029.21" y="1014.26" type="priority"/>
    <node id="1699122517" x="1483.47" y="1526.35" type="priority"/>
    <node id="1699122528" x="1378.47" y="1494.58" type="priority"/>
    <node id="1699123296" x="1339.16" y="1587.86" type="priority"/>
    <node id="1699123802" x="1426.76" y="1336.23" type="right_before_left"/>
    <node id="1699125530" x="1090.12" y="1541.45" type="right_before_left"/>
    <node id="1699126874" x="919.03" y="1294.54" type="dead_end"/>
    <node id="1699126899" x="996.63" y="1301.68" type="priority"/>
    <node id="1699129851" x="1049.58" y="1346.61" type="dead_end"/>
    <node id="1699946381" x="999.61" y="1274.09" type="priority"/>
    <node id="1699946394" x="1004.75" y="1290.35" type="dead_end"/>
    <node id="1699946406" x="1083.86" y="1388.74" type="priority"/>
    <node id="1699946425" x="1247.33" y="1407.06" type="priority"/>
    <node id="1699953856" x="914.76" y="1190.65" type="dead_end"/>
    <node id="1699953861" x="1152.13" y="1159.25" type="dead_end"/>
    <node id="1699953862" x="907.76" y="1247.97" type="dead_end"/>
    <node id="1699953865" x="1127.06" y="1287.70" type="dead_end"/>
    <node id="1699953875" x="801.68" y="1151.85" type="dead_end"/>
    <node id="1699953878" x="1162.15" y="1286.18" type="dead_end"/>
    <node id="1699953881" x="919.58" y="1148.14" type="dead_end"/>
    <node id="1699953914" x="777.45" y="1176.30" type="dead_end"/>
    <node id="1699953923" x="1218.02" y="1067.86" type="dead_end"/>
    <node id="1699953931" x="841.28" y="1275.77" type="priority"/>
    <node id="1699953946" x="816.25" y="1400.75" type="dead_end"/>
    <node id="1699953955" x="1184.60" y="1089.24" type="priority"/>
    <node id="1699953959" x="717.33" y="1264.66" type="right_before_left"/>
    <node id="1699953983" x="762.83" y="1392.53" type="dead_end"/>
    <node id="1699953985" x="918.35" y="1161.87" type="dead_end"/>
    <node id="1699954001" x="711.85" y="1237.09" type="dead_end"/>
    <node id="1699954004" x="1148.94" y="1396.10" type="right_before_left"/>
    <node id="1699954005" x="780.11" y="1393.96" type="dead_end"/>
    <node id="1699954012" x="1137.23" y="1283.41" type="dead_end"/>
    <node id="1699954019" x="864.38" y="1361.83" type="dead_end"/>
    <node id="1699954021" x="759.35" y="1227.62" type="dead_end"/>
    <node id="1699954023" x="1268.35" y="1110.30" type="dead_end"/>
    <node id="1699954025" x="821.89" y="1354.79" type="dead_end"/>
    <node id="1699957239" x="1180.90" y="1394.68" type="dead_end"/>
    <node id="1699957265" x="1184.20" y="1091.96" type="dead_end"/>
    <node id="1699960460" x="889.96" y="1470.00" type="priority"/>
    <node id="1699994795" x="866.34" y="1385.96" type="dead_end"/>
    <node id="1700106005" x="1297.96" y="1566.29" type="right_before_left"/>
    <node id="1703763540" x="3329.04" y="4044.64" type="priority"/>
    <node id="1703763542" x="3315.78" y="3975.90" type="priority"/>
    <node id="1703763544" x="3360.27" y="3961.11" type="priority"/>
    <node id="1703763546" x="3378.62" y="4050.81" type="priority"/>
    <node id="1741669078" x="822.62" y="1348.62" type="dead_end"/>
    <node id="1772130755" x="600.11" y="2133.39" type="right_before_left"/>
    <node id="1772130763" x="563.03" y="2194.61" type="priority"/>
    <node id="1772130768" x="575.75" y="2250.64" type="right_before_left"/>
    <node id="1772130787" x="603.56" y="2116.81" type="right_before_left"/>
    <node id="1772130792" x="572.24" y="2127.31" type="priority"/>
    <node id="1772130798" x="575.66" y="2111.01" type="priority"/>
    <node id="1772130806" x="551.26" y="2227.41" type="priority"/>
    <node id="1772130824" x="568.82" y="2143.66" type="priority"/>
    <node id="1772130827" x="586.35" y="2199.62" type="right_before_left"/>
    <node id="1772130830" x="565.06" y="2160.58" type="priority"/>
    <node id="1772130832" x="504.38" y="2114.40" type="dead_end"/>
    <node id="1772130840" x="547.72" y="2244.33" type="priority"/>
    <node id="1772130848" x="509.85" y="1972.23" type="priority"/>
    <node id="1772130855" x="585.08" y="2095.26" type="priority"/>
    <node id="1772130857" x="561.80" y="2177.51" type="priority"/>
    <node id="1772130859" x="582.85" y="2216.48" type="right_before_left"/>
    <node id="1772130867" x="579.43" y="2232.97" type="right_before_left"/>
    <node id="1772130875" x="593.23" y="2166.51" type="right_before_left"/>
    <node id="1772130890" x="589.77" y="2183.12" type="right_before_left"/>
    <node id="1772130904" x="607.03" y="2100.09" type="right_before_left"/>
    <node id="1772130918" x="499.44" y="2023.54" type="priority"/>
    <node id="1772130930" x="596.68" y="2149.92" type="right_before_left"/>
    <node id="1772130935" x="554.87" y="2210.16" type="priority"/>
    <node id="1808385059" x="738.36" y="2240.50" type="priority"/>
    <node id="1808385074" x="737.40" y="1799.45" type="priority"/>
    <node id="1808385079" x="758.25" y="2131.95" type="priority"/>
    <node id="1831045419" x="475.80" y="2041.14" type="dead_end"/>
    <node id="1831045429" x="499.94" y="2096.59" type="dead_end"/>
    <node id="1834908290" x="4104.83" y="3862.15" type="priority"/>
    <node id="1834908292" x="3964.83" y="2902.87" type="priority"/>
    <node id="1834908307" x="3656.16" y="1821.37" type="priority"/>
    <node id="1834908308" x="3641.26" y="1784.93" type="dead_end"/>
    <node id="1834908315" x="3643.00" y="1826.42" type="priority"/>
    <node id="1881894952" x="187.80" y="2826.13" type="priority"/>
    <node id="1914790301" x="2294.24" y="3882.69" type="right_before_left"/>
    <node id="1914790308" x="2296.76" y="3222.17" type="right_before_left"/>
    <node id="1914790315" x="2244.08" y="3176.92" type="priority"/>
    <node id="1914791365" x="2024.38" y="2651.77" type="priority"/>
    <node id="1914792749" x="2450.17" y="1070.51" type="priority"/>
    <node id="1914792753" x="2183.69" y="1402.84" type="priority"/>
    <node id="1914792760" x="2035.76" y="1144.32" type="right_before_left"/>
    <node id="1914792762" x="2154.56" y="1119.06" type="priority"/>
    <node id="1914792763" x="1946.47" y="1146.05" type="priority"/>
    <node id="1914792764" x="2123.16" y="1123.38" type="priority"/>
    <node id="1914792765" x="2188.35" y="1107.58" type="priority"/>
    <node id="1914792774" x="2038.99" y="1220.26" type="priority"/>
    <node id="1914792775" x="2180.89" y="1342.12" type="right_before_left"/>
    <node id="1914792776" x="1952.69" y="1227.30" type="priority"/>
    <node id="1914792777" x="2714.90" y="1049.18" type="priority"/>
    <node id="1914792778" x="2208.15" y="1335.74" type="priority"/>
    <node id="1914792784" x="2147.26" y="1405.75" type="priority"/>
    <node id="1914792786" x="2143.08" y="1301.12" type="priority"/>
    <node id="1914792790" x="2210.96" y="1444.93" type="priority"/>
    <node id="1914792792" x="2093.36" y="1217.48" type="priority"/>
    <node id="1914792797" x="2145.04" y="1350.97" type="right_before_left"/>
    <node id="1914792799" x="2081.38" y="1129.14" type="priority"/>
    <node id="1914792800" x="2237.48" y="1027.63" type="priority"/>
    <node id="1914792801" x="2207.12" y="1257.33" type="priority"/>
    <node id="1914792802" x="2260.70" y="1161.03" type="priority"/>
    <node id="1914792806" x="2360.06" y="1338.28" type="priority"/>
    <node id="1939990003" x="3436.44" y="1459.71" type="dead_end"/>
    <node id="1939990005" x="3086.98" y="743.53" type="priority"/>
    <node id="1939997121" x="3905.90" y="3351.53" type="priority"/>
    <node id="1939997123" x="3959.69" y="3358.08" type="priority"/>
    <node id="1939997126" x="3901.94" y="3336.56" type="priority"/>
    <node id="1939997128" x="3721.95" y="3401.69" type="priority"/>
    <node id="1939997130" x="4020.93" y="3339.83" type="priority"/>
    <node id="1939997131" x="3734.97" y="3324.03" type="priority"/>
    <node id="1939997133" x="4011.35" y="3283.33" type="priority"/>
    <node id="1939997134" x="3944.20" y="3302.94" type="priority"/>
    <node id="1939997135" x="3858.85" y="3364.37" type="priority"/>
    <node id="1939997139" x="3766.47" y="3389.55" type="priority"/>
    <node id="1970946182" x="3725.38" y="3281.78" type="priority"/>
    <node id="1973143280" x="3681.66" y="3194.43" type="dead_end"/>
    <node id="1973143282" x="3680.47" y="3122.50" type="dead_end"/>
    <node id="1973143286" x="3627.54" y="3209.75" type="priority"/>
    <node id="1973143287" x="3728.41" y="3109.09" type="dead_end"/>
    <node id="1973143289" x="3651.70" y="3301.84" type="priority"/>
    <node id="1973143291" x="3649.96" y="3200.90" type="dead_end"/>
    <node id="1973143296" x="3669.64" y="3064.28" type="dead_end"/>
    <node id="1973143298" x="3639.84" y="3072.87" type="dead_end"/>
    <node id="1973143299" x="3719.97" y="3261.17" type="priority"/>
    <node id="1973143302" x="3738.66" y="3040.97" type="dead_end"/>
    <node id="1973143303" x="3751.91" y="3175.39" type="priority"/>
    <node id="1977405992" x="3755.54" y="3968.71" type="priority"/>
    <node id="1977412233" x="1982.81" y="467.41" type="priority"/>
    <node id="1977412971" x="1899.60" y="780.33" type="priority"/>
    <node id="1977412973" x="1958.07" y="1064.40" type="priority"/>
    <node id="1983990313" x="1117.39" y="3926.50" type="priority"/>
    <node id="1983994098" x="1328.28" y="3535.55" type="priority"/>
    <node id="1983996119" x="1299.06" y="3152.70" type="priority"/>
    <node id="1983998877" x="2062.35" y="3842.88" type="priority"/>
    <node id="1984001822" x="2730.86" y="4024.59" type="priority"/>
    <node id="1984001824" x="2567.38" y="3881.76" type="right_before_left"/>
    <node id="1984001825" x="2615.94" y="3930.29" type="right_before_left"/>
    <node id="1984001827" x="2683.14" y="4027.05" type="priority"/>
    <node id="1984001828" x="2681.76" y="3976.83" type="right_before_left"/>
    <node id="1984002383" x="2640.66" y="3800.23" type="right_before_left"/>
    <node id="1984002385" x="2707.58" y="3834.45" type="right_before_left"/>
    <node id="1984002386" x="2689.18" y="3734.69" type="right_before_left"/>
    <node id="1984002387" x="2706.54" y="3794.76" type="right_before_left"/>
    <node id="1984003214" x="2459.61" y="3483.50" type="priority"/>
    <node id="1984003215" x="2460.37" y="3520.27" type="priority"/>
    <node id="1984004344" x="2542.86" y="3377.54" type="priority"/>
    <node id="1984004346" x="2639.88" y="3428.69" type="priority"/>
    <node id="1984004347" x="2357.60" y="3437.24" type="priority"/>
    <node id="1984006460" x="2972.72" y="3364.54" type="priority"/>
    <node id="1984006463" x="2837.67" y="3510.56" type="priority"/>
    <node id="1984006464" x="2881.73" y="3420.15" type="priority"/>
    <node id="1984006465" x="3078.34" y="3771.30" type="right_before_left"/>
    <node id="1984006468" x="3062.32" y="3670.47" type="right_before_left"/>
    <node id="1984006469" x="3054.30" y="3620.81" type="right_before_left"/>
    <node id="1984006470" x="2978.15" y="3506.34" type="priority"/>
    <node id="1984006477" x="3028.11" y="3621.52" type="priority"/>
    <node id="1984009540" x="2861.58" y="3724.47" type="right_before_left"/>
    <node id="1984009542" x="3027.26" y="3778.83" type="right_before_left"/>
    <node id="1984009543" x="2884.37" y="3723.84" type="right_before_left"/>
    <node id="1984009546" x="3069.99" y="3718.72" type="right_before_left"/>
    <node id="1984009547" x="2817.38" y="3761.96" type="right_before_left"/>
    <node id="1984009548" x="2885.92" y="3804.84" type="right_before_left"/>
    <node id="1984009550" x="2770.61" y="3808.29" type="priority"/>
    <node id="1984009551" x="3025.60" y="3719.96" type="right_before_left"/>
    <node id="1984009553" x="2919.16" y="3675.11" type="right_before_left"/>
    <node id="1984009555" x="3127.61" y="3763.80" type="right_before_left"/>
    <node id="1984011712" x="2748.90" y="3565.19" type="priority"/>
    <node id="1984011713" x="2800.66" y="3562.16" type="right_before_left"/>
    <node id="1984011715" x="2852.66" y="3561.56" type="right_before_left"/>
    <node id="1984013671" x="3044.34" y="3557.30" type="right_before_left"/>
    <node id="2003861578" x="900.74" y="1367.44" type="priority"/>
    <node id="2003861596" x="896.68" y="1470.78" type="priority"/>
    <node id="2003861598" x="1010.74" y="1172.66" type="right_before_left"/>
    <node id="2003861603" x="907.98" y="1368.21" type="priority"/>
    <node id="2008648283" x="3225.71" y="3972.56" type="priority"/>
    <node id="2024990412" x="2973.71" y="3886.25" type="right_before_left"/>
    <node id="2024990417" x="3020.13" y="3883.36" type="right_before_left"/>
    <node id="2024990420" x="2486.52" y="3757.96" type="priority"/>
    <node id="2024990432" x="2506.46" y="3804.31" type="priority"/>
    <node id="2024990442" x="2929.56" y="3951.56" type="right_before_left"/>
    <node id="2025429139" x="3142.64" y="3919.67" type="priority"/>
    <node id="2025429145" x="3067.57" y="3922.42" type="right_before_left"/>
    <node id="2026361426" x="2560.83" y="3023.58" type="priority"/>
    <node id="2026361428" x="2599.59" y="2935.21" type="priority"/>
    <node id="2026361430" x="2641.97" y="2928.95" type="priority"/>
    <node id="2026361432" x="2605.82" y="3020.72" type="priority"/>
    <node id="2026361434" x="2718.73" y="2968.04" type="priority"/>
    <node id="2026361436" x="2606.58" y="3118.74" type="priority"/>
    <node id="2026361438" x="2644.80" y="2971.75" type="priority"/>
    <node id="2026361440" x="2646.90" y="3018.05" type="priority"/>
    <node id="2026361442" x="2721.15" y="3012.68" type="priority"/>
    <node id="2026387678" x="3005.94" y="2939.31" type="priority"/>
    <node id="2026387681" x="2913.72" y="2889.23" type="priority"/>
    <node id="2026387687" x="2884.70" y="2966.15" type="priority"/>
    <node id="2026387689" x="2970.51" y="2944.01" type="priority"/>
    <node id="2026387691" x="2834.28" y="2974.30" type="priority"/>
    <node id="2026387693" x="2768.56" y="2945.91" type="priority"/>
    <node id="2026389514" x="3383.56" y="2673.63" type="priority"/>
    <node id="2026389519" x="3852.85" y="2692.76" type="priority"/>
    <node id="2026389567" x="3539.98" y="2616.47" type="priority"/>
    <node id="2026389581" x="3820.39" y="2790.24" type="priority"/>
    <node id="2026499879" x="3680.37" y="3293.69" type="priority"/>
    <node id="2026905058" x="3727.10" y="3180.61" type="dead_end"/>
    <node id="2028007966" x="3531.60" y="2863.21" type="priority"/>
    <node id="2028007970" x="3676.34" y="2918.71" type="dead_end"/>
    <node id="2028007973" x="3555.20" y="2828.04" type="dead_end"/>
    <node id="2028007974" x="3706.28" y="2923.65" type="dead_end"/>
    <node id="2028007979" x="3634.16" y="2839.01" type="dead_end"/>
    <node id="2028007984" x="3615.70" y="2799.49" type="dead_end"/>
    <node id="2028007994" x="3603.46" y="3000.97" type="dead_end"/>
    <node id="2028007995" x="3707.31" y="2954.72" type="dead_end"/>
    <node id="2028007997" x="3666.28" y="2980.63" type="dead_end"/>
    <node id="2028008005" x="3612.05" y="2940.98" type="dead_end"/>
    <node id="2028008006" x="3561.43" y="2876.45" type="dead_end"/>
    <node id="2028008009" x="3589.06" y="2863.34" type="dead_end"/>
    <node id="2028131405" x="2004.73" y="1926.34" type="priority"/>
    <node id="2028131410" x="2059.56" y="2041.36" type="priority"/>
    <node id="2028131414" x="2021.13" y="2043.74" type="priority"/>
    <node id="2028142215" x="1808.58" y="1692.50" type="priority"/>
    <node id="2028142218" x="1568.13" y="1656.25" type="priority"/>
    <node id="2028142219" x="1862.06" y="1616.87" type="priority"/>
    <node id="2028217413" x="2006.38" y="1436.51" type="priority"/>
    <node id="2028217418" x="1764.62" y="1719.65" type="priority"/>
    <node id="2028217422" x="1966.37" y="1529.48" type="priority"/>
    <node id="2028217428" x="1965.79" y="1492.57" type="priority"/>
    <node id="2028217432" x="1964.87" y="1447.25" type="priority"/>
    <node id="2028217441" x="2051.08" y="1527.19" type="priority">
        <param key="buffer_stop" value="true"/>
    </node>
    <node id="2028217446" x="1912.86" y="1491.23" type="priority"/>
    <node id="2028217451" x="2008.56" y="1527.47" type="priority">
        <param key="buffer_stop" value="true"/>
    </node>
    <node id="2028404550" x="1987.57" y="1404.27" type="priority"/>
    <node id="2028404551" x="1986.26" y="1341.56" type="priority"/>
    <node id="2028404552" x="1953.34" y="1406.56" type="priority"/>
    <node id="2028404553" x="1951.91" y="1345.08" type="priority"/>
    <node id="2028404554" x="2053.68" y="1327.08" type="priority"/>
    <node id="2028404555" x="2055.27" y="1395.88" type="priority"/>
    <node id="2028404556" x="2020.56" y="1333.91" type="priority"/>
    <node id="2028404557" x="2021.56" y="1400.10" type="priority"/>
    <node id="2028412054" x="2158.86" y="619.54" type="priority"/>
    <node id="2028412055" x="2079.67" y="570.67" type="priority"/>
    <node id="2028412056" x="2057.24" y="631.99" type="priority"/>
    <node id="2028412057" x="2173.38" y="713.04" type="priority"/>
    <node id="2028412058" x="2113.45" y="720.42" type="priority"/>
    <node id="2028412059" x="2073.68" y="729.49" type="priority"/>
    <node id="2028412061" x="2205.34" y="659.06" type="priority"/>
    <node id="2028412062" x="2106.70" y="673.61" type="priority"/>
    <node id="2028412063" x="2065.29" y="679.72" type="priority"/>
    <node id="2028412064" x="2270.99" y="1011.33" type="priority"/>
    <node id="2028412065" x="2099.84" y="625.96" type="priority"/>
    <node id="2028412066" x="2076.21" y="547.50" type="priority"/>
    <node id="2028413026" x="2945.77" y="1114.52" type="priority"/>
    <node id="2028413027" x="3132.33" y="821.24" type="priority"/>
    <node id="2028413028" x="3084.53" y="892.50" type="priority"/>
    <node id="2028413029" x="3111.30" y="845.16" type="priority"/>
    <node id="2028413030" x="3067.62" y="914.56" type="priority"/>
    <node id="2028413032" x="2937.76" y="1076.40" type="priority"/>
    <node id="2028413033" x="3097.98" y="868.89" type="priority"/>
    <node id="2034600666" x="1992.95" y="1026.10" type="priority"/>
    <node id="2034600668" x="2022.90" y="991.39" type="priority"/>
    <node id="2034600683" x="1320.08" y="292.02" type="priority"/>
    <node id="2034600687" x="1993.49" y="1193.96" type="priority"/>
    <node id="2034600691" x="1249.21" y="225.82" type="priority"/>
    <node id="2034600693" x="2002.92" y="1290.06" type="right_before_left"/>
    <node id="2034600699" x="1991.09" y="1144.34" type="right_before_left"/>
    <node id="2034600703" x="1992.11" y="1166.09" type="right_before_left"/>
    <node id="2034600707" x="1270.61" y="246.58" type="priority"/>
    <node id="2034600715" x="1925.75" y="1100.23" type="priority"/>
    <node id="2034600716" x="2001.62" y="1249.16" type="priority"/>
    <node id="2034600718" x="2036.74" y="1163.79" type="right_before_left"/>
    <node id="2034603680" x="864.53" y="2145.46" type="priority"/>
    <node id="2034795449" x="2712.40" y="1324.76" type="priority"/>
    <node id="2034795450" x="2572.84" y="1405.48" type="priority"/>
    <node id="2034795451" x="2540.60" y="1386.24" type="priority"/>
    <node id="2034795452" x="2609.82" y="1346.51" type="priority"/>
    <node id="2034795453" x="2651.38" y="1353.51" type="priority"/>
    <node id="2034795454" x="2648.11" y="1283.09" type="priority"/>
    <node id="2034795455" x="2714.83" y="1394.12" type="priority"/>
    <node id="2034795456" x="2632.13" y="1455.00" type="priority"/>
    <node id="2034795457" x="2551.11" y="1208.56" type="priority"/>
    <node id="2034795459" x="2747.48" y="1337.32" type="priority"/>
    <node id="2034795461" x="2578.09" y="1326.68" type="priority"/>
    <node id="2034795462" x="2600.08" y="1432.69" type="priority"/>
    <node id="2034795463" x="2495.53" y="1219.91" type="priority"/>
    <node id="2034795465" x="2683.64" y="1374.16" type="priority"/>
    <node id="2034795466" x="2708.23" y="1408.01" type="priority"/>
    <node id="2034795467" x="2678.39" y="1307.99" type="priority"/>
    <node id="2034795468" x="2641.16" y="1366.10" type="priority"/>
    <node id="2034795469" x="2674.84" y="1387.15" type="priority"/>
    <node id="2034795471" x="2618.69" y="1332.60" type="priority"/>
    <node id="2034795472" x="2664.87" y="1474.36" type="priority"/>
    <node id="2034823194" x="2560.03" y="1453.38" type="priority"/>
    <node id="2034835805" x="730.43" y="1853.38" type="priority"/>
    <node id="2034837995" x="861.54" y="1817.93" type="priority"/>
    <node id="2034837999" x="899.68" y="1828.75" type="priority"/>
    <node id="2034838001" x="781.53" y="1805.19" type="priority"/>
    <node id="2034838003" x="836.48" y="2005.01" type="priority"/>
    <node id="2034838004" x="753.83" y="1998.39" type="priority"/>
    <node id="2034838005" x="876.66" y="2009.86" type="priority"/>
    <node id="2034838006" x="795.18" y="2000.15" type="priority"/>
    <node id="2034838008" x="888.05" y="1939.62" type="priority"/>
    <node id="2034838009" x="819.67" y="1817.52" type="priority"/>
    <node id="2034838010" x="766.11" y="1921.54" type="priority"/>
    <node id="2034838011" x="847.33" y="1934.80" type="priority"/>
    <node id="2034838012" x="806.33" y="1929.23" type="priority"/>
    <node id="2034934476" x="946.09" y="1825.62" type="priority"/>
    <node id="2035264158" x="1894.47" y="1004.64" type="priority"/>
    <node id="2035267212" x="1265.13" y="2069.11" type="priority">
        <param key="buffer_stop" value="true"/>
    </node>
    <node id="2035267213" x="1275.80" y="1943.25" type="priority">
        <param key="buffer_stop" value="true"/>
    </node>
    <node id="2035267215" x="1150.66" y="2018.67" type="priority">
        <param key="buffer_stop" value="true"/>
    </node>
    <node id="2035267217" x="1269.87" y="2029.61" type="priority">
        <param key="buffer_stop" value="true"/>
    </node>
    <node id="2035267218" x="1150.26" y="2058.51" type="priority">
        <param key="buffer_stop" value="true"/>
    </node>
    <node id="2035267220" x="1172.10" y="1894.90" type="priority">
        <param key="buffer_stop" value="true"/>
    </node>
    <node id="2035267223" x="1153.54" y="1932.73" type="priority">
        <param key="buffer_stop" value="true"/>
    </node>
    <node id="2035267225" x="1264.51" y="1784.02" type="priority"/>
    <node id="2035267227" x="1158.50" y="1975.78" type="priority">
        <param key="buffer_stop" value="true"/>
    </node>
    <node id="2035267229" x="1280.77" y="1987.45" type="priority">
        <param key="buffer_stop" value="true"/>
    </node>
    <node id="2035267231" x="1284.43" y="1903.23" type="priority">
        <param key="buffer_stop" value="true"/>
    </node>
    <node id="2043768793" x="1477.57" y="1459.07" type="priority"/>
    <node id="2043768796" x="1495.71" y="1425.09" type="priority"/>
    <node id="2043768798" x="1180.39" y="1399.38" type="right_before_left"/>
    <node id="2044106193" x="811.78" y="3902.72" type="priority"/>
    <node id="2044106195" x="733.71" y="2325.50" type="priority"/>
    <node id="206410406" x="1932.07" y="3395.46" type="priority"/>
    <node id="206410417" x="3852.80" y="2460.75" type="priority"/>
    <node id="206410418" x="3814.27" y="2431.58" type="priority"/>
    <node id="206410452" x="3403.55" y="2601.69" type="traffic_light" tl="206410452"/>
    <node id="206410453" x="3650.30" y="2421.83" type="traffic_light" tl="joinedS_2"/>
    <node id="206410458" x="3506.56" y="2479.68" type="priority"/>
    <node id="206410460" x="3390.03" y="2556.66" type="traffic_light" tl="206410460"/>
    <node id="206410462" x="3225.63" y="2603.13" type="priority"/>
    <node id="206410463" x="3027.42" y="2646.61" type="traffic_light" tl="206410463"/>
    <node id="206410465" x="3125.79" y="3245.80" type="priority"/>
    <node id="206410466" x="3122.81" y="3134.68" type="priority"/>
    <node id="206410473" x="2976.32" y="2418.25" type="priority"/>
    <node id="206410474" x="3295.23" y="2316.84" type="priority"/>
    <node id="206410479" x="3634.44" y="3438.67" type="traffic_light" tl="206410479"/>
    <node id="206410485" x="3779.34" y="4139.27" type="priority"/>
    <node id="206410486" x="3740.65" y="4202.25" type="traffic_light" tl="206410486"/>
    <node id="206410767" x="3998.07" y="3202.64" type="priority"/>