<?xml version="1.0" encoding="UTF-8"?>

<!-- generated on 02/25/20 18:57:26 by Eclipse SUMO netconvert Version 1.3.1
<configuration xmlns:xsi="http://www.w3.org/2001/XMLSchema-instance" xsi:noNamespaceSchemaLocation="http://sumo.dlr.de/xsd/netconvertConfiguration.xsd">

    <input>
        <osm-files value="macul.osm"/>
    </input>

    <output>
        <output-file value="macul.net.xml"/>
        <plain-output-prefix value="macul"/>
    </output>

    <projection>
        <proj.utm value="true"/>
    </projection>

    <processing>
        <numerical-ids value="true"/>
        <geometry.remove value="true"/>
    </processing>

    <tls_building>
        <tls.discard-simple value="true"/>
        <tls.join value="true"/>
        <tls.guess-signals value="true"/>
    </tls_building>

    <ramp_guessing>
        <ramps.guess value="true"/>
    </ramp_guessing>

    <junctions>
        <junctions.join value="true"/>
    </junctions>

</configuration>
-->

<tlLogics version="1.3" xmlns:xsi="http://www.w3.org/2001/XMLSchema-instance" xsi:noNamespaceSchemaLocation="http://sumo.dlr.de/xsd/tllogic_file.xsd">
    <tlLogic id="148839429" type="static" programID="0" offset="0">
        <phase duration="33" state="rrrrGGrrrrrrGGrr"/>
        <phase duration="6"  state="rrrryyrrrrrryyrr"/>
        <phase duration="6"  state="rrrrrrGGrrrrrrGG"/>
        <phase duration="6"  state="rrrrrryyrrrrrryy"/>
        <phase duration="33" state="GGggrrrrGGggrrrr"/>
        <phase duration="6"  state="yyyyrrrryyyyrrrr"/>
    </tlLogic>
    <tlLogic id="148848179" type="static" programID="0" offset="0">
        <phase duration="39" state="GGggrrrrGGggrrrr"/>
        <phase duration="6"  state="yyyyrrrryyyyrrrr"/>
        <phase duration="39" state="rrrrGGggrrrrGGgg"/>
        <phase duration="6"  state="rrrryyyyrrrryyyy"/>
    </tlLogic>
    <tlLogic id="148848181" type="static" programID="0" offset="0">
        <phase duration="24" state="GGgrrrGggrrr"/>
        <phase duration="6"  state="yyyrrryyyrrr"/>
        <phase duration="24" state="rrrGGGrrrrrr"/>
        <phase duration="6"  state="rrryyyrrrrrr"/>
        <phase duration="24" state="GrrrrrrrrGGg"/>
        <phase duration="6"  state="yrrrrrrrryyy"/>
    </tlLogic>
    <tlLogic id="148849142" type="static" programID="0" offset="0">
        <phase duration="39" state="GGGrrr"/>
        <phase duration="6"  state="yyyrrr"/>
        <phase duration="39" state="rrrGGG"/>
        <phase duration="6"  state="rrryyy"/>
    </tlLogic>
    <tlLogic id="16106390" type="static" programID="0" offset="0">
        <phase duration="79" state="GGGGG"/>
        <phase duration="6"  state="yyyyy"/>
        <phase duration="5"  state="rrrrr"/>
    </tlLogic>
    <tlLogic id="206410452" type="static" programID="0" offset="0">
        <phase duration="39" state="GgrrrGGg"/>
        <phase duration="6"  state="yyrrryyy"/>
        <phase duration="39" state="rrGGGrrr"/>
        <phase duration="6"  state="rryyyrrr"/>
    </tlLogic>
    <tlLogic id="206410460" type="static" programID="0" offset="0">
        <phase duration="24" state="GrrrGrrrrGGGGg"/>
        <phase duration="6"  state="yrrryrrrryyyyy"/>
        <phase duration="24" state="GGGGGrrrrrrrrr"/>
        <phase duration="6"  state="yyyyyrrrrrrrrr"/>
        <phase duration="24" state="rrrrGGGGgGrrrr"/>
        <phase duration="6"  state="rrrryyyyyyrrrr"/>
    </tlLogic>
    <tlLogic id="206410463" type="static" programID="0" offset="0">
        <phase duration="39" state="rrrrGGggrrrrGGgg"/>
        <phase duration="6"  state="rrrryyyyrrrryyyy"/>
        <phase duration="39" state="GGggrrrrGGggrrrr"/>
        <phase duration="6"  state="yyyyrrrryyyyrrrr"/>
    </tlLogic>
    <tlLogic id="206410479" type="static" programID="0" offset="0">
        <phase duration="25" state="GrrGGGgrrrr"/>
        <phase duration="5"  state="yrryyyyrrrr"/>
        <phase duration="25" state="rrrrrrrGGGG"/>
        <phase duration="5"  state="rrrrrrryyyy"/>
        <phase duration="25" state="GGGrrrrrrrr"/>
        <phase duration="5"  state="yyyrrrrrrrr"/>
    </tlLogic>
    <tlLogic id="206410486" type="static" programID="0" offset="0">
        <phase duration="39" state="GgGrr"/>
        <phase duration="6"  state="yyyrr"/>
        <phase duration="39" state="rrGGG"/>
        <phase duration="6"  state="rryyy"/>
    </tlLogic>
    <tlLogic id="266098802" type="static" programID="0" offset="0">
        <phase duration="39" state="GGgGggrrr"/>
        <phase duration="6"  state="yyyyyyrrr"/>
        <phase duration="39" state="GrrrrrGGg"/>
        <phase duration="6"  state="yrrrrryyy"/>
    </tlLogic>
    <tlLogic id="268898149" type="static" programID="0" offset="0">
        <phase duration="39" state="rrrrGGggrrrrGGgg"/>
        <phase duration="6"  state="rrrryyyyrrrryyyy"/>
        <phase duration="39" state="GGggrrrrGGggrrrr"/>
        <phase duration="6"  state="yyyyrrrryyyyrrrr"/>
    </tlLogic>
    <tlLogic id="268898957" type="static" programID="0" offset="0">
        <phase duration="39" state="GGGgrrrrrGgg"/>
        <phase duration="6"  state="yyyyrrrrryyy"/>
        <phase duration="39" state="rrrrGgGGGrrr"/>
        <phase duration="6"  state="rrrryyyyyrrr"/>
    </tlLogic>
    <tlLogic id="276284076" type="static" programID="0" offset="0">
        <phase duration="39" state="GGggrrrrGGggrrrr"/>
        <phase duration="6"  state="yyyyrrrryyyyrrrr"/>
        <phase duration="39" state="rrrrGGggrrrrGGgg"/>
        <phase duration="6"  state="rrrryyyyrrrryyyy"/>
    </tlLogic>
    <tlLogic id="276284077" type="static" programID="0" offset="0">
        <phase duration="39" state="GGggrrrrGGggrrrr"/>
        <phase duration="6"  state="yyyyrrrryyyyrrrr"/>
        <phase duration="39" state="rrrrGGggrrrrGGgg"/>
        <phase duration="6"  state="rrrryyyyrrrryyyy"/>
    </tlLogic>
    <tlLogic id="3896786248" type="static" programID="0" offset="0">
        <phase duration="42" state="GGrr"/>
        <phase duration="3"  state="yyrr"/>
        <phase duration="42" state="rrGG"/>
        <phase duration="3"  state="rryy"/>
    </tlLogic>
    <tlLogic id="427973693" type="static" programID="0" offset="0">
        <phase duration="40" state="rrrrGggGGg"/>
        <phase duration="5"  state="rrrryyyyyy"/>
        <phase duration="40" state="GGGGrrrrrr"/>
        <phase duration="5"  state="yyyyrrrrrr"/>
    </tlLogic>
    <tlLogic id="4401555021" type="static" programID="0" offset="0">
        <phase duration="39" state="GGGgrrrrGGGg"/>
        <phase duration="6"  state="yyyyrrrryyyy"/>
        <phase duration="39" state="rrrrGGGGrrrr"/>
        <phase duration="6"  state="rrrryyyyrrrr"/>
    </tlLogic>
    <tlLogic id="4403362593" type="static" programID="0" offset="0">
        <phase duration="79" state="GG"/>
        <phase duration="6"  state="yy"/>
        <phase duration="5"  state="rr"/>
    </tlLogic>
    <tlLogic id="4436329901" type="static" programID="0" offset="0">
        <phase duration="27" state="rrrrGGGrrrrrrGGGrr"/>
        <phase duration="6"  state="rrrryyyrrrrrryyyrr"/>
        <phase duration="6"  state="rrrrrrrGGrrrrrrrGG"/>
        <phase duration="6"  state="rrrrrrryyrrrrrrryy"/>
        <phase duration="27" state="GGrrrrrrrGGggrrrrr"/>
        <phase duration="6"  state="yyrrrrrrryyggrrrrr"/>
        <phase duration="6"  state="rrGGrrrrrrrGGrrrrr"/>
        <phase duration="6"  state="rryyrrrrrrryyrrrrr"/>
    </tlLogic>
    <tlLogic id="457762152" type="static" programID="0" offset="0">
        <phase duration="39" state="GgrrGg"/>
        <phase duration="6"  state="yyrryy"/>
        <phase duration="39" state="rrGGrr"/>
        <phase duration="6"  state="rryyrr"/>
    </tlLogic>
    <tlLogic id="474938950" type="static" programID="0" offset="0">
        <phase duration="79" state="GGGGG"/>
        <phase duration="6"  state="yyyyy"/>
        <phase duration="5"  state="rrrrr"/>
    </tlLogic>
    <tlLogic id="479436634" type="static" programID="0" offset="0">
        <phase duration="39" state="GgGrr"/>
        <phase duration="6"  state="yyyrr"/>
        <phase duration="39" state="rrGGG"/>
        <phase duration="6"  state="rryyy"/>
    </tlLogic>
    <tlLogic id="515257456" type="static" programID="0" offset="0">
        <phase duration="39" state="rrrrGGGGggrrrrrGgGGgg"/>
        <phase duration="6"  state="rrrryyyyyyrrrrryyyyyy"/>
        <phase duration="39" state="GGggrrrrrrGGGggrrrrrr"/>
        <phase duration="6"  state="yyyyrrrrrryyyyyrrrrrr"/>
    </tlLogic>
    <tlLogic id="515257517" type="static" programID="0" offset="0">
        <phase duration="72" state="GrrGGGGg"/>
        <phase duration="6"  state="yrryyyyy"/>
        <phase duration="6"  state="GGGrrrrr"/>
        <phase duration="6"  state="yyyrrrrr"/>
    </tlLogic>
    <tlLogic id="516813179" type="static" programID="0" offset="0">
        <phase duration="39" state="GggrrrrGGGg"/>
        <phase duration="6"  state="yyyrrrryyyy"/>
        <phase duration="39" state="rrrGGGgGGrr"/>
        <phase duration="6"  state="rrryyyyyyrr"/>
    </tlLogic>
    <tlLogic id="6061637325" type="static" programID="0" offset="0">
        <phase duration="39" state="GGr"/>
        <phase duration="6"  state="yyr"/>
        <phase duration="39" state="rrG"/>
        <phase duration="6"  state="rry"/>
    </tlLogic>
    <tlLogic id="cluster_14760647_3634244419_6067401547" type="static" programID="0" offset="0">
        <phase duration="24" state="rrrrGGGrrr"/>
        <phase duration="6"  state="rrrryyyrrr"/>
        <phase duration="24" state="GGrrrrrGgG"/>
        <phase duration="6"  state="yyrrrrryyy"/>
        <phase duration="24" state="GGGGrrrrrr"/>
        <phase duration="6"  state="yyyyrrrrrr"/>
    </tlLogic>
    <tlLogic id="cluster_148808239_6710435041" type="static" programID="0" offset="0">
        <phase duration="24" state="rrrGGGGGrrrrrrr"/>
        <phase duration="6"  state="rrryyyyyrrrrrrr"/>
        <phase duration="24" state="GGgGrrrrGrrrGgg"/>
        <phase duration="6"  state="yyyyrrrryrrryyy"/>
        <phase duration="24" state="rrrGrrrrGGGGrrr"/>
        <phase duration="6"  state="rrryrrrryyyyrrr"/>
    </tlLogic>
    <tlLogic id="cluster_148848183_4433301734" type="static" programID="0" offset="0">
        <phase duration="33" state="GGrrGGrrrrrr"/>
        <phase duration="6"  state="yyrryyrrrrrr"/>
        <phase duration="6"  state="rrGGrrGGrrrr"/>
        <phase duration="6"  state="rryyrryyrrrr"/>
        <phase duration="33" state="GrrrrrrrGGGg"/>
        <phase duration="6"  state="yrrrrrrryyyy"/>
    </tlLogic>
    <tlLogic id="cluster_148849136_2082154708" type="static" programID="0" offset="0">
        <phase duration="39" state="GgggGGGgrrrrr"/>
        <phase duration="6"  state="yyyyyyyyrrrrr"/>
        <phase duration="39" state="rrrrrrrrGGGGG"/>
        <phase duration="6"  state="rrrrrrrryyyyy"/>
    </tlLogic>
    <tlLogic id="cluster_148849158_6018791786_6018791787" type="static" programID="0" offset="0">
        <phase duration="39" state="GGGrrr"/>
        <phase duration="6"  state="yyyrrr"/>
        <phase duration="39" state="rrrGGG"/>
        <phase duration="6"  state="rrryyy"/>
    </tlLogic>
    <tlLogic id="cluster_148849177_3939907157" type="static" programID="0" offset="0">
        <phase duration="76" state="GGGGGGGgg"/>
        <phase duration="4"  state="yyyyyyygg"/>
        <phase duration="6"  state="rrrrrrrGG"/>
        <phase duration="4"  state="rrrrrrryy"/>
    </tlLogic>
    <tlLogic id="cluster_148849201_148849209_3898519857" type="static" programID="0" offset="0">
        <phase duration="27" state="GGGrrrrrrrrGGGrr"/>
        <phase duration="6"  state="yyyrrrrrrrryyyrr"/>
        <phase duration="6"  state="rrrrrrrrrrrGGGGG"/>
        <phase duration="6"  state="rrrrrrrrrrryyyyy"/>
        <phase duration="27" state="rrrGgGrGGGGrrrrr"/>
        <phase duration="6"  state="rrryyyryyyyrrrrr"/>
        <phase duration="6"  state="rrrrrGGGGGGrrrrr"/>
        <phase duration="6"  state="rrrrryyyyyyrrrrr"/>
    </tlLogic>
    <tlLogic id="cluster_148849202_148849210_4431703627" type="static" programID="0" offset="0">
        <phase duration="33" state="GGrrGGGGrrrrr"/>
        <phase duration="6"  state="yyrryyyyrrrrr"/>
        <phase duration="6"  state="GGGGrrrrrrrrr"/>
        <phase duration="6"  state="yyyyrrrrrrrrr"/>
        <phase duration="33" state="rrrrGrrrGGGGG"/>
        <phase duration="6"  state="rrrryrrryyyyy"/>
    </tlLogic>
    <tlLogic id="cluster_206410480_4505246138_4505336458_4505336461" type="static" programID="0" offset="0">
        <phase duration="25" state="GGGgrrrrrGGgggrr"/>
        <phase duration="5"  state="yyyyrrrrryyyyyrr"/>
        <phase duration="25" state="rrGgGrrrrrrrrrGG"/>
        <phase duration="5"  state="rryyyrrrrrrrrryy"/>
        <phase duration="25" state="rrrrGGGGGrrrrrrr"/>
        <phase duration="5"  state="rrrryyyyyrrrrrrr"/>
    </tlLogic>
    <tlLogic id="cluster_2498015122_3664936025" type="static" programID="0" offset="0">
        <phase duration="27" state="GGggrrrrrrrrGGgg"/>
        <phase duration="3"  state="yyyyrrrrrrrryyyy"/>
        <phase duration="27" state="rrrrGGGGrrrrrrrr"/>
        <phase duration="3"  state="rrrryyyyrrrrrrrr"/>
        <phase duration="27" state="rrrrrrrrGGGgGrrr"/>
        <phase duration="3"  state="rrrrrrrryyyyyrrr"/>
    </tlLogic>
    <tlLogic id="cluster_2498015152_427977425_427977426_917094409" type="static" programID="0" offset="0">
        <phase duration="24" state="rrrrrrrrGGGG"/>
        <phase duration="6"  state="rrrrrrrryyyy"/>
        <phase duration="24" state="rrrrGGGGrrrr"/>
        <phase duration="6"  state="rrrryyyyrrrr"/>
        <phase duration="24" state="GGGgGrrrrrrr"/>
        <phase duration="6"  state="yyyyyrrrrrrr"/>
    </tlLogic>
    <tlLogic id="cluster_2534474211_2534474212_3924273857" type="static" programID="0" offset="0">
        <phase duration="39" state="rrrrrGGGggrrrrrGGGgg"/>
        <phase duration="6"  state="rrrrryyyyyrrrrryyyyy"/>
        <phase duration="39" state="GGGggrrrrrGGGggrrrrr"/>
        <phase duration="6"  state="yyyyyrrrrryyyyyrrrrr"/>
    </tlLogic>
    <tlLogic id="cluster_265682296_5647022727_6117554804_6618212174" type="static" programID="0" offset="0">
        <phase duration="25" state="rrrrrGGGgggrrrrrGGGGggrrrrr"/>
        <phase duration="5"  state="rrrrryyyyyyrrrrryyyyyyrrrrr"/>
        <phase duration="25" state="GGGggrrrrrrGGgggrrrrrrrrrrr"/>
        <phase duration="5"  state="yyyyyrrrrrryyyyyrrrrrrrrrrr"/>
        <phase duration="25" state="rrrrrrrrrrrrrrrrrrrrrrGGGGG"/>
        <phase duration="5"  state="rrrrrrrrrrrrrrrrrrrrrryyyyy"/>
    </tlLogic>
    <tlLogic id="cluster_266100098_266100100" type="static" programID="0" offset="0">
        <phase duration="39" state="rrrrGGGGggrrrrGGGGgg"/>
        <phase duration="6"  state="rrrryyyyyyrrrryyyyyy"/>
        <phase duration="39" state="GGggrrrrrrGGggrrrrrr"/>
        <phase duration="6"  state="yyyyrrrrrryyyyrrrrrr"/>
    </tlLogic>
    <tlLogic id="cluster_276284036_5843998411_5843998412" type="static" programID="0" offset="0">
        <phase duration="39" state="rrrGggGGg"/>
        <phase duration="6"  state="rrryyyyyy"/>
        <phase duration="39" state="GGGrrrrrr"/>
        <phase duration="6"  state="yyyrrrrrr"/>
    </tlLogic>
    <tlLogic id="cluster_3286651215_3286651225_515257831_518218463" type="static" programID="0" offset="0">
        <phase duration="20" state="GgggGGGgGgGGrrrrrrrrrrrrrrrrr"/>
        <phase duration="6"  state="yyyyyyyyyyyyrrrrrrrrrrrrrrrrr"/>
        <phase duration="6"  state="rrrrrrrrGgGGGGGGrrrrrrrrrrrrr"/>
        <phase duration="6"  state="rrrrrrrryyyyyyyyrrrrrrrrrrrrr"/>
        <phase duration="20" state="GrGrrrrrrrrrrrrrrrGgGgGGGGGGg"/>
        <phase duration="6"  state="yryrrrrrrrrrrrrrrryyyyyyyyyyy"/>
        <phase duration="20" state="GGgrrGGgGrGGrrrrGgGrrrrrrrrrr"/>
        <phase duration="6"  state="yyyrryyyyryyrrrryyyrrrrrrrrrr"/>
    </tlLogic>
    <tlLogic id="cluster_3684165531_3684165532" type="static" programID="0" offset="0">
        <phase duration="39" state="GGGggrrrrrGGGggrrrrr"/>
        <phase duration="6"  state="yyyyyrrrrryyyyyrrrrr"/>
        <phase duration="39" state="rrrrrGGGggrrrrrGGGgg"/>
        <phase duration="6"  state="rrrrryyyyyrrrrryyyyy"/>
    </tlLogic>
    <tlLogic id="cluster_3920908460_3920908461_514666856_514666993_5434075454_5434075455_7108291093" type="static" programID="0" offset="0">
        <phase duration="12" state="rrrrrrrrGGGGgggrrrrrrrrrrrrrrrrrrrrrrGGGggggrrrrrrr"/>
        <phase duration="6"  state="rrrrrrrryyyyyyyrrrrrrrrrrrrrrrrrrrrrryyyyyyyrrrrrrr"/>
        <phase duration="14" state="rrrrrrrrrrrrrrrrrrrrrrggGGgggrrrrrrrrrrrrrrrggGgggg"/>
        <phase duration="6"  state="rrrrrrrrrrrrrrrrrrrrrryyyyyyyrrrrrrrrrrrrrrryyyyyyy"/>
        <phase duration="14" state="GGGgggggrrrrrrrrrrrrrrrrrrrrrggGGggggrrrrrrrrrrrrrr"/>
        <phase duration="6"  state="yyygggggrrrrrrrrrrrrrrrrrrrrrggyyggggrrrrrrrrrrrrrr"/>
        <phase duration="6"  state="rrrGGggGrrrrrrrrrrrrrrrrrrrrrggrrGGGgrrrrrrrrrrrrrr"/>
        <phase duration="6"  state="rrryyyyyrrrrrrrrrrrrrrrrrrrrryyrryyyyrrrrrrrrrrrrrr"/>
        <phase duration="14" state="rrrrrrrrrrrrrrrGGGGGGGrrrrrrrrrrrrrrrrrrrrrrrrrrrrr"/>
        <phase duration="6"  state="rrrrrrrrrrrrrrryyyyyyyrrrrrrrrrrrrrrrrrrrrrrrrrrrrr"/>
    </tlLogic>
    <tlLogic id="cluster_3924221816_3924221817_516812448" type="static" programID="0" offset="0">
        <phase duration="27" state="rrrrGGGrrrrrrGGGrr"/>
        <phase duration="6"  state="rrrryyyrrrrrryyyrr"/>
        <phase duration="6"  state="rrrrrrrGGrrrrrrrGG"/>
        <phase duration="6"  state="rrrrrrryyrrrrrrryy"/>
        <phase duration="27" state="GGrrrrrrrGGggrrrrr"/>
        <phase duration="6"  state="yyrrrrrrryyggrrrrr"/>
        <phase duration="6"  state="rrGGrrrrrrrGGrrrrr"/>
        <phase duration="6"  state="rryyrrrrrrryyrrrrr"/>
    </tlLogic>
    <tlLogic id="cluster_4016900292_4016900294_474860163_5709835822_5709835823" type="static" programID="0" offset="0">
        <phase duration="15" state="rrrrrrrrrrrrrrrrrrrggGGGgrrrrrrgggggg"/>
        <phase duration="6"  state="rrrrrrrrrrrrrrrrrrryyyyyyrrrrrryyyyyy"/>
        <phase duration="17" state="GGGGggrrrrrrrrrrrrrrrrrrrGGggggrrrrrr"/>
        <phase duration="6"  state="yyyyyyrrrrrrrrrrrrrrrrrrryyyyyyrrrrrr"/>
        <phase duration="17" state="rrrrrrrrrrrrGGGGGGGrrrrrrrrrrrrrrrrrr"/>
        <phase duration="6"  state="rrrrrrrrrrrryyyyyyyrrrrrrrrrrrrrrrrrr"/>
        <phase duration="17" state="rrrrrrGGGGGgGrrrrrrrrrrrrrrrrrrrrrrrr"/>
        <phase duration="6"  state="rrrrrryyyyyyyrrrrrrrrrrrrrrrrrrrrrrrr"/>
    </tlLogic>
    <tlLogic id="cluster_421908252_4432068768_4432068769_605172873" type="static" programID="0" offset="0">
        <phase duration="39" state="rrrrGGGggrrGGGgg"/>
        <phase duration="6"  state="rrrryyyyyrryyyyy"/>
        <phase duration="39" state="GGggGrrrrGgrrrrr"/>
        <phase duration="6"  state="yyyyyrrrryyrrrrr"/>
    </tlLogic>
    <tlLogic id="cluster_4392802069_515257112" type="static" programID="0" offset="0">
        <phase duration="39" state="rrrrrGgGggrrrrrGgGgg"/>
        <phase duration="6"  state="rrrrryyyyyrrrrryyyyy"/>
        <phase duration="39" state="GGGggrrrrrGGGggrrrrr"/>
        <phase duration="6"  state="yyyyyrrrrryyyyyrrrrr"/>
    </tlLogic>
    <tlLogic id="cluster_4429341167_460301372" type="static" programID="0" offset="0">
        <phase duration="39" state="GGGrrrrGGgg"/>
        <phase duration="6"  state="yyyrrrryyyy"/>
        <phase duration="39" state="rrrGGGGrrrr"/>
        <phase duration="6"  state="rrryyyyrrrr"/>
    </tlLogic>
    <tlLogic id="cluster_4431771625_515234942" type="static" programID="0" offset="0">
        <phase duration="39" state="GGGgggrrrrGGGGGgrrrrrr"/>
        <phase duration="6"  state="yyyyyyrrrryyyyyyrrrrrr"/>
        <phase duration="39" state="rrrrrrggggrrrrrrGGGGGg"/>
        <phase duration="6"  state="rrrrrryyyyrrrrrryyyyyy"/>
    </tlLogic>
    <tlLogic id="cluster_4433230218_514666845_514666997" type="static" programID="0" offset="0">
        <phase duration="27" state="GGGggrrrGGGgrrrr"/>
        <phase duration="3"  state="yyyyyrrryyyyrrrr"/>
        <phase duration="27" state="GrrrrrrrrrrrGGGg"/>
        <phase duration="3"  state="yrrrrrrrrrrryyyy"/>
        <phase duration="27" state="GrrrrGGgGrrrrrrr"/>
        <phase duration="3"  state="yrrrryyyyrrrrrrr"/>
    </tlLogic>
    <tlLogic id="cluster_4446331109_515234951_515235051" type="static" programID="0" offset="0">
        <phase duration="39" state="GGgGGggrrrrrrGGGGgg"/>
        <phase duration="6"  state="yyyyyyyrrrrrryyyyyy"/>
        <phase duration="39" state="rrrrrrrGGGGGgGrrrrr"/>
        <phase duration="6"  state="rrrrrrryyyyyyyrrrrr"/>
    </tlLogic>
    <tlLogic id="cluster_4446954697_472270178" type="static" programID="0" offset="0">
        <phase duration="24" state="rrrrrGggrrrGGGg"/>
        <phase duration="6"  state="rrrrryyyrrryyyy"/>
        <phase duration="24" state="GgGGGrrrrrrrrrr"/>
        <phase duration="6"  state="yyyyyrrrrrrrrrr"/>
        <phase duration="24" state="rrrrrrrrGGGrrrr"/>
        <phase duration="6"  state="rrrrrrrryyyrrrr"/>
    </tlLogic>
    <tlLogic id="cluster_474939009_474939010" type="static" programID="0" offset="0">
        <phase duration="39" state="GGGGGrrr"/>
        <phase duration="6"  state="yyyyyrrr"/>
        <phase duration="39" state="GGGrrGGG"/>
        <phase duration="6"  state="yyyrryyy"/>
    </tlLogic>
    <tlLogic id="cluster_514666895_514666937" type="static" programID="0" offset="0">
        <phase duration="24" state="rrrrrrrrGGGGGG"/>
        <phase duration="6"  state="rrrrrrrryyyyyy"/>
        <phase duration="24" state="GGrrGGGGrrrrrr"/>
        <phase duration="6"  state="yyrryyyyrrrrrr"/>
        <phase duration="24" state="GGGGrrrrrrrrrr"/>
        <phase duration="6"  state="yyyyrrrrrrrrrr"/>
    </tlLogic>
    <tlLogic id="cluster_514666897_514667096_6710435047_6710435048" type="static" programID="0" offset="0">
        <phase duration="15" state="rrrrrrGGGGGrrrrrrrrrrrrrrrrr"/>
        <phase duration="6"  state="rrrrrryyyyyrrrrrrrrrrrrrrrrr"/>
        <phase duration="17" state="rrrrrrrrrrrGGGggrrrrrrrGGggg"/>
        <phase duration="6"  state="rrrrrrrrrrryyyyyrrrrrrryyyyy"/>
        <phase duration="17" state="rrrrrrrrrrrrrrrrGGGGGGgGrrrr"/>
        <phase duration="6"  state="rrrrrrrrrrrrrrrryyyyyyyyrrrr"/>
        <phase duration="17" state="GGGGGgGrrrrrrrrrrrrrrrrrrrrr"/>
        <phase duration="6"  state="yyyyyyyrrrrrrrrrrrrrrrrrrrrr"/>
    </tlLogic>
    <tlLogic id="cluster_514666901_514667070" type="static" programID="0" offset="0">
        <phase duration="39" state="rrrrrGGGggrrrrrGGGgg"/>
        <phase duration="6"  state="rrrrryyyyyrrrrryyyyy"/>
        <phase duration="39" state="GGGggrrrrrGGGggrrrrr"/>
        <phase duration="6"  state="yyyyyrrrrryyyyyrrrrr"/>
    </tlLogic>
    <tlLogic id="cluster_515234956_515235043" type="static" programID="0" offset="0">
        <phase duration="39" state="GgGGggrrrrrGgGGggrrrrr"/>
        <phase duration="6"  state="yyyyyyrrrrryyyyyyrrrrr"/>
        <phase duration="39" state="rrrrrrGGGggrrrrrrGGGgg"/>
        <phase duration="6"  state="rrrrrryyyyyrrrrrryyyyy"/>
    </tlLogic>
    <tlLogic id="cluster_515257143_515257146_515257392" type="static" programID="0" offset="0">
        <phase duration="39" state="rrGGgGgGGGgg"/>
        <phase duration="6"  state="rryyyyyyyyyy"/>
        <phase duration="39" state="GGGrGrrGGGrr"/>
        <phase duration="6"  state="yyyryrryyyrr"/>
    </tlLogic>
    <tlLogic id="cluster_515257189_515258077" type="static" programID="0" offset="0">
        <phase duration="39" state="GGGggrrrrGgGGgrrrr"/>
        <phase duration="6"  state="yyyyyrrrryyyyyrrrr"/>
        <phase duration="39" state="rrrrrGGggrrrrrGGGg"/>
        <phase duration="6"  state="rrrrryyyyrrrrryyyy"/>
    </tlLogic>
    <tlLogic id="cluster_605172787_917047781" type="static" programID="0" offset="0">
        <phase duration="24" state="rrGGGgrrGGGg"/>
        <phase duration="6"  state="rryyyyrryyyy"/>
        <phase duration="24" state="GGrrrrrrrrrr"/>
        <phase duration="6"  state="yyrrrrrrrrrr"/>
        <phase duration="24" state="rrrrrrGGrrrr"/>
        <phase duration="6"  state="rrrrrryyrrrr"/>
    </tlLogic>
    <tlLogic id="joinedS_0" type="static" programID="0" offset="0">
        <phase duration="33" state="GGgrrrrrGggGggGGgrrrr"/>
        <phase duration="6"  state="yyyrrrrryyyyyyyyyrrrr"/>
        <phase duration="33" state="rrrgggggGGgGGgrrrgggg"/>
        <phase duration="6"  state="rrrgggggyyyyyyrrrgggg"/>
        <phase duration="6"  state="rrrgggggGGgGGgrrrgggg"/>
        <phase duration="6"  state="rrryyyyyyyyyyyrrryyyy"/>
    </tlLogic>
    <tlLogic id="joinedS_1" type="static" programID="0" offset="0">
        <phase duration="41" state="rrrGGGGGggggggGGGG"/>
        <phase duration="4"  state="rrryyyyyyyyyyyyyyy"/>
        <phase duration="41" state="GGgrrrrrGggGGGrrrr"/>
        <phase duration="4"  state="yyyrrrrryyyyyyrrrr"/>
    </tlLogic>
    <tlLogic id="joinedS_2" type="static" programID="0" offset="0">
        <phase duration="39" state="gggrrrGGGGGGrrrGGGGGGggg"/>
        <phase duration="6"  state="yyyrrryyyyyyrrryyyyyyyyy"/>
        <phase duration="39" state="GggGGgrrrrrrGGgrrrrrrGgg"/>
        <phase duration="6"  state="yyyyyyrrrrrryyyrrrrrryyy"/>
    </tlLogic>

    <connection from="-244113980" to="774865593" fromLane="0" toLane="0" tl="206410460" linkIndex="0"/>
    <connection from="-244113980" to="774863849" fromLane="0" toLane="0" tl="206410460" linkIndex="1"/>
    <connection from="-244113980" to="774866523" fromLane="0" toLane="3" tl="206410460" linkIndex="2"/>
    <connection from="-244113980" to="244113980" fromLane="0" toLane="1" tl="206410460" linkIndex="3"/>
    <connection from="-36128306" to="-628585226" fromLane="0" toLane="0" tl="joinedS_2" linkIndex="21"/>
    <connection from="-36128306" to="774866491" fromLane="0" toLane="3" tl="joinedS_2" linkIndex="22"/>
    <connection from="-36128306" to="36128306" fromLane="0" toLane="0" tl="joinedS_2" linkIndex="23"/>
    <connection from="-382913528" to="774864246" fromLane="0" toLane="0" tl="joinedS_1" linkIndex="8"/>
    <connection from="-382913528" to="774868689" fromLane="0" toLane="2" tl="joinedS_1" linkIndex="9"/>
    <connection from="-382913528" to="382913528" fromLane="0" toLane="0" tl="joinedS_1" linkIndex="10"/>
    <connection from="-398010754" to="774867335" fromLane="0" toLane="1" tl="cluster_148849177_3939907157" linkIndex="7"/>
    <connection from="-398010754" to="398010754" fromLane="0" toLane="0" tl="cluster_148849177_3939907157" linkIndex="8"/>
    <connection from="-445830751" to="774865481" fromLane="0" toLane="0" tl="4401555021" linkIndex="8"/>
    <connection from="-445830751" to="774865481" fromLane="1" toLane="1" tl="4401555021" linkIndex="9"/>
    <connection from="-445830751" to="774865481" fromLane="2" toLane="2" tl="4401555021" linkIndex="10"/>
    <connection from="-445830751" to="445830751" fromLane="2" toLane="2" tl="4401555021" linkIndex="11"/>
    <connection from="-447286328" to="774864748" fromLane="0" toLane="0" tl="457762152" linkIndex="4"/>
    <connection from="-447286328" to="447286328" fromLane="0" toLane="0" tl="457762152" linkIndex="5"/>
    <connection from="-447535100" to="774865618" fromLane="0" toLane="0" tl="cluster_4446331109_515234951_515235051" linkIndex="13"/>
    <connection from="-447535100" to="774868652" fromLane="0" toLane="0" tl="cluster_4446331109_515234951_515235051" linkIndex="14"/>
    <connection from="-447535100" to="774868652" fromLane="1" toLane="1" tl="cluster_4446331109_515234951_515235051" linkIndex="15"/>
    <connection from="-447535100" to="774868652" fromLane="2" toLane="2" tl="cluster_4446331109_515234951_515235051" linkIndex="16"/>
    <connection from="-447535100" to="774866061" fromLane="2" toLane="1" tl="cluster_4446331109_515234951_515235051" linkIndex="17"/>
    <connection from="-447535100" to="447535100" fromLane="2" toLane="2" tl="cluster_4446331109_515234951_515235051" linkIndex="18"/>
    <connection from="-447608168" to="774868671" fromLane="0" toLane="0" tl="cluster_515257189_515258077" linkIndex="5"/>
    <connection from="-447608168" to="774868671" fromLane="0" toLane="1" tl="cluster_515257189_515258077" linkIndex="6"/>
    <connection from="-447608168" to="774868637" fromLane="0" toLane="2" tl="cluster_515257189_515258077" linkIndex="7"/>
    <connection from="-447608168" to="447608168" fromLane="0" toLane="0" tl="cluster_515257189_515258077" linkIndex="8"/>
    <connection from="15090121" to="774867950" fromLane="0" toLane="0" tl="cluster_148849202_148849210_4431703627" linkIndex="0"/>
    <connection from="15090121" to="774867950" fromLane="1" toLane="1" tl="cluster_148849202_148849210_4431703627" linkIndex="1"/>
    <connection from="15090121" to="774868369" fromLane="2" toLane="1" tl="cluster_148849202_148849210_4431703627" linkIndex="2"/>
    <connection from="15090121" to="442680923" fromLane="2" toLane="2" tl="cluster_148849202_148849210_4431703627" linkIndex="3"/>
    <connection from="196464369" to="774865275" fromLane="0" toLane="0" tl="cluster_2534474211_2534474212_3924273857" linkIndex="5"/>
    <connection from="196464369" to="774868375" fromLane="0" toLane="0" tl="cluster_2534474211_2534474212_3924273857" linkIndex="6"/>
    <connection from="196464369" to="774868375" fromLane="1" toLane="1" tl="cluster_2534474211_2534474212_3924273857" linkIndex="7"/>
    <connection from="196464369" to="774868326" fromLane="1" toLane="1" tl="cluster_2534474211_2534474212_3924273857" linkIndex="8"/>
    <connection from="196464369" to="774868150" fromLane="1" toLane="1" tl="cluster_2534474211_2534474212_3924273857" linkIndex="9"/>