<?xml version="1.0" encoding="UTF-8"?>

<!-- generated on 02/25/20 18:57:26 by Eclipse SUMO netconvert Version 1.3.1
<configuration xmlns:xsi="http://www.w3.org/2001/XMLSchema-instance" xsi:noNamespaceSchemaLocation="http://sumo.dlr.de/xsd/netconvertConfiguration.xsd">

    <input>
        <osm-files value="macul.osm"/>
    </input>

    <output>
        <output-file value="macul.net.xml"/>
        <plain-output-prefix value="macul"/>
    </output>

    <projection>
        <proj.utm value="true"/>
    </projection>

    <processing>
        <numerical-ids value="true"/>
        <geometry.remove value="true"/>
    </processing>

    <tls_building>
        <tls.discard-simple value="true"/>
        <tls.join value="true"/>
        <tls.guess-signals value="true"/>
    </tls_building>

    <ramp_guessing>
        <ramps.guess value="true"/>
    </ramp_guessing>

    <junctions>
        <junctions.join value="true"/>
    </junctions>

</configuration>
-->

<connections version="1.3" xmlns:xsi="http://www.w3.org/2001/XMLSchema-instance" xsi:noNamespaceSchemaLocation="http://sumo.dlr.de/xsd/connections_file.xsd">
    <connection from="-122089452" to="774866011" fromLane="0" toLane="0"/>
    <connection from="-122089452" to="122089452" fromLane="0" toLane="0"/>

    <connection from="-122089454" to="774865161" fromLane="0" toLane="0"/>
    <connection from="-122089454" to="774867836" fromLane="0" toLane="0"/>
    <connection from="-122089454" to="122089454" fromLane="0" toLane="0"/>

    <connection from="-123543018" to="774868403" fromLane="0" toLane="0"/>
    <connection from="-123543018" to="774865490" fromLane="0" toLane="0"/>
    <connection from="-123543018" to="25352145" fromLane="0" toLane="0"/>

    <connection from="-126099162" to="774866016" fromLane="0" toLane="0"/>
    <connection from="-126099162" to="774863796" fromLane="0" toLane="0"/>
    <connection from="-126099162" to="-728263316" fromLane="0" toLane="0"/>

    <connection from="-127777482" to="774865990" fromLane="0" toLane="0"/>
    <connection from="-127777482" to="-442355819" fromLane="0" toLane="0"/>
    <connection from="-127777482" to="127777482" fromLane="0" toLane="0"/>

    <connection from="-139486974" to="774863841" fromLane="0" toLane="0"/>
    <connection from="-139486974" to="774866064" fromLane="0" toLane="0"/>
    <connection from="-139486974" to="139486974" fromLane="0" toLane="0"/>

    <connection from="-156380618" to="774868076" fromLane="0" toLane="0"/>
    <connection from="-156380618" to="156380618" fromLane="0" toLane="0"/>

    <connection from="-156389411" to="774866102" fromLane="0" toLane="0"/>
    <connection from="-156389411" to="156389411" fromLane="0" toLane="0"/>

    <connection from="-158120632" to="774869492" fromLane="0" toLane="0"/>
    <connection from="-158120632" to="158120632" fromLane="0" toLane="0"/>

    <connection from="-158120633" to="158120633" fromLane="0" toLane="0"/>

    <connection from="-159548522" to="774863894" fromLane="0" toLane="0"/>
    <connection from="-159548522" to="-191976794" fromLane="0" toLane="0"/>
    <connection from="-159548522" to="774866207" fromLane="0" toLane="0"/>

    <connection from="-165671871" to="774863859" fromLane="0" toLane="0"/>
    <connection from="-165671871" to="774866116" fromLane="0" toLane="0"/>
    <connection from="-165671871" to="165671871" fromLane="0" toLane="0"/>

    <connection from="-165671875" to="774863862" fromLane="0" toLane="0"/>
    <connection from="-165671875" to="774866119" fromLane="0" toLane="0"/>
    <connection from="-165671875" to="165671875" fromLane="0" toLane="0"/>

    <connection from="-165671878" to="774863854" fromLane="0" toLane="0"/>
    <connection from="-165671878" to="774866110" fromLane="0" toLane="0"/>
    <connection from="-165671878" to="165671878" fromLane="0" toLane="0"/>

    <connection from="-165671880" to="774863860" fromLane="0" toLane="0"/>
    <connection from="-165671880" to="774866117" fromLane="0" toLane="0"/>
    <connection from="-165671880" to="165671880" fromLane="0" toLane="0"/>

    <connection from="-165671883" to="774863858" fromLane="0" toLane="0"/>
    <connection from="-165671883" to="774866115" fromLane="0" toLane="0"/>
    <connection from="-165671883" to="165671883" fromLane="0" toLane="0"/>

    <connection from="-165671885" to="774863861" fromLane="0" toLane="0"/>
    <connection from="-165671885" to="774866118" fromLane="0" toLane="0"/>
    <connection from="-165671885" to="165671885" fromLane="0" toLane="0"/>

    <connection from="-165671888" to="774863855" fromLane="0" toLane="0"/>
    <connection from="-165671888" to="774866112" fromLane="0" toLane="0"/>
    <connection from="-165671888" to="165671888" fromLane="0" toLane="0"/>

    <connection from="-165671892" to="774863856" fromLane="0" toLane="0"/>
    <connection from="-165671892" to="774866113" fromLane="0" toLane="0"/>
    <connection from="-165671892" to="165671892" fromLane="0" toLane="0"/>

    <connection from="-165671893" to="774863857" fromLane="0" toLane="0"/>
    <connection from="-165671893" to="774866114" fromLane="0" toLane="0"/>
    <connection from="-165671893" to="165671893" fromLane="0" toLane="0"/>

    <connection from="-165671894" to="774863863" fromLane="0" toLane="0"/>
    <connection from="-165671894" to="774866111" fromLane="0" toLane="0"/>
    <connection from="-165671894" to="165671894" fromLane="0" toLane="0"/>

    <connection from="-181033250" to="774867303" fromLane="0" toLane="0"/>
    <connection from="-181033250" to="774864768" fromLane="0" toLane="0"/>
    <connection from="-181033250" to="181033250" fromLane="0" toLane="0"/>

    <connection from="-181033258" to="774868341" fromLane="0" toLane="0"/>
    <connection from="-181033258" to="774865461" fromLane="0" toLane="0"/>
    <connection from="-181033258" to="181033258" fromLane="0" toLane="0"/>

    <connection from="-181033263" to="181033263" fromLane="0" toLane="0"/>

    <connection from="-181033291" to="181033291" fromLane="0" toLane="0"/>

    <connection from="-181033402" to="774865437" fromLane="0" toLane="0"/>
    <connection from="-181033402" to="774868282" fromLane="0" toLane="0"/>
    <connection from="-181033402" to="181033402" fromLane="0" toLane="0"/>

    <connection from="-181033409" to="181033409" fromLane="0" toLane="0"/>

    <connection from="-181033412" to="774865436" fromLane="0" toLane="0"/>
    <connection from="-181033412" to="774868281" fromLane="0" toLane="0"/>
    <connection from="-181033412" to="181033412" fromLane="0" toLane="0"/>

    <connection from="-181033413" to="181033413" fromLane="0" toLane="0"/>

    <connection from="-181033414" to="181033414" fromLane="0" toLane="0"/>

    <connection from="-181033416" to="181033416" fromLane="0" toLane="0"/>

    <connection from="-181033418" to="181033418" fromLane="0" toLane="0"/>

    <connection from="-181033419" to="181033419" fromLane="0" toLane="0"/>

    <connection from="-181033420" to="774863908" fromLane="0" toLane="0"/>
    <connection from="-181033420" to="774865352" fromLane="0" toLane="0"/>
    <connection from="-181033420" to="447551949" fromLane="0" toLane="0"/>
    <connection from="-181033420" to="181033420" fromLane="0" toLane="0"/>

    <connection from="-181033423" to="774868678" fromLane="0" toLane="0"/>
    <connection from="-181033423" to="774868678" fromLane="0" toLane="1"/>
    <connection from="-181033423" to="181033423" fromLane="0" toLane="0"/>

    <connection from="-181033424" to="181033424" fromLane="0" toLane="0"/>

    <connection from="-183595030" to="774863930" fromLane="0" toLane="0"/>
    <connection from="-183595030" to="774866245" fromLane="0" toLane="0"/>
    <connection from="-183595030" to="183595030" fromLane="0" toLane="0"/>

    <connection from="-183595031" to="774863931" fromLane="0" toLane="0"/>
    <connection from="-183595031" to="630808252" fromLane="0" toLane="0"/>
    <connection from="-183595031" to="774866246" fromLane="0" toLane="0"/>
    <connection from="-183595031" to="183595031" fromLane="0" toLane="0"/>

    <connection from="-183595038" to="774863928" fromLane="0" toLane="0"/>
    <connection from="-183595038" to="774866243" fromLane="0" toLane="0"/>
    <connection from="-183595038" to="183595038" fromLane="0" toLane="0"/>

    <connection from="-183595041" to="774863929" fromLane="0" toLane="0"/>
    <connection from="-183595041" to="774863922" fromLane="0" toLane="0"/>
    <connection from="-183595041" to="774866244" fromLane="0" toLane="0"/>
    <connection from="-183595041" to="183595041" fromLane="0" toLane="0"/>

    <connection from="-183595043" to="774863920" fromLane="0" toLane="0"/>
    <connection from="-183595043" to="774866235" fromLane="0" toLane="0"/>
    <connection from="-183595043" to="183595043" fromLane="0" toLane="0"/>

    <connection from="-186574826" to="186574826" fromLane="0" toLane="0"/>

    <connection from="-186984722" to="774864608" fromLane="0" toLane="0"/>
    <connection from="-186984722" to="774867129" fromLane="0" toLane="0"/>
    <connection from="-186984722" to="186984722" fromLane="0" toLane="0"/>

    <connection from="-186985486" to="774868372" fromLane="0" toLane="0"/>
    <connection from="-186985486" to="186985486" fromLane="0" toLane="0"/>

    <connection from="-187763658" to="187763658" fromLane="0" toLane="0"/>

    <connection from="-187763733" to="774864931" fromLane="0" toLane="0"/>
    <connection from="-187763733" to="774867521" fromLane="0" toLane="0"/>
    <connection from="-187763733" to="187763732" fromLane="0" toLane="0"/>

    <connection from="-187764006" to="774866076" fromLane="0" toLane="0"/>
    <connection from="-187764006" to="187764006" fromLane="0" toLane="0"/>

    <connection from="-187764178" to="774867479" fromLane="0" toLane="0"/>
    <connection from="-187764178" to="774864904" fromLane="0" toLane="0"/>
    <connection from="-187764178" to="187764178" fromLane="0" toLane="0"/>

    <connection from="-187764179" to="41782264" fromLane="0" toLane="0"/>
    <connection from="-187764179" to="774864905" fromLane="0" toLane="0"/>
    <connection from="-187764179" to="774867480" fromLane="0" toLane="0"/>

    <connection from="-187764240" to="774869275" fromLane="0" toLane="0"/>
    <connection from="-187764240" to="774865926" fromLane="0" toLane="0"/>
    <connection from="-187764240" to="187764240" fromLane="0" toLane="0"/>

    <connection from="-187764241" to="774868097" fromLane="0" toLane="0"/>
    <connection from="-187764241" to="774865317" fromLane="0" toLane="0"/>
    <connection from="-187764241" to="187764241" fromLane="0" toLane="0"/>

    <connection from="-187764355" to="774863999" fromLane="0" toLane="0"/>
    <connection from="-187764355" to="-442476107" fromLane="0" toLane="0"/>
    <connection from="-187764355" to="774866333" fromLane="0" toLane="0"/>
    <connection from="-187764355" to="187764355" fromLane="0" toLane="0"/>

    <connection from="-187764356" to="774867454" fromLane="0" toLane="0"/>
    <connection from="-187764356" to="774864879" fromLane="0" toLane="0"/>
    <connection from="-187764356" to="187764356" fromLane="0" toLane="0"/>

    <connection from="-187764837" to="774869288" fromLane="0" toLane="0"/>
    <connection from="-187764837" to="774865939" fromLane="0" toLane="0"/>
    <connection from="-187764837" to="187764837" fromLane="0" toLane="0"/>

    <connection from="-191939647" to="774863966" fromLane="0" toLane="0"/>
    <connection from="-191939647" to="774866289" fromLane="0" toLane="0"/>
    <connection from="-191939647" to="191939647" fromLane="0" toLane="0"/>

    <connection from="-191939652" to="774868606" fromLane="0" toLane="0"/>
    <connection from="-191939652" to="191939652" fromLane="0" toLane="0"/>

    <connection from="-191965059" to="774865596" fromLane="0" toLane="0"/>
    <connection from="-191965059" to="774863990" fromLane="0" toLane="0"/>
    <connection from="-191965059" to="774868578" fromLane="0" toLane="0"/>
    <connection from="-191965059" to="774866322" fromLane="0" toLane="0"/>

    <connection from="-191976794" to="774868805" fromLane="0" toLane="0"/>
    <connection from="-191976794" to="774865739" fromLane="0" toLane="0"/>
    <connection from="-191976794" to="191976794" fromLane="0" toLane="0"/>

    <connection from="-191976799" to="774866325" fromLane="0" toLane="0"/>
    <connection from="-191976799" to="442476093" fromLane="0" toLane="0"/>
    <connection from="-191976799" to="774863992" fromLane="0" toLane="0"/>
    <connection from="-191976799" to="191976799" fromLane="0" toLane="0"/>

    <connection from="-192078927" to="774867449" fromLane="0" toLane="0"/>
    <connection from="-192078927" to="774863997" fromLane="0" toLane="0"/>
    <connection from="-192078927" to="774864874" fromLane="0" toLane="0"/>
    <connection from="-192078927" to="774866330" fromLane="0" toLane="0"/>

    <connection from="-192079164" to="774866337" fromLane="0" toLane="0"/>
    <connection from="-192079164" to="774864003" fromLane="0" toLane="0"/>
    <connection from="-192079164" to="192079164" fromLane="0" toLane="0"/>

    <connection from="-192079166" to="774864008" fromLane="0" toLane="0"/>
    <connection from="-192079166" to="774866342" fromLane="0" toLane="0"/>
    <connection from="-192079166" to="192079166" fromLane="0" toLane="0"/>

    <connection from="-192079169" to="774868594" fromLane="0" toLane="0"/>
    <connection from="-192079169" to="774865612" fromLane="0" toLane="0"/>
    <connection from="-192079169" to="192079169" fromLane="0" toLane="0"/>

    <connection from="-192081223" to="774865619" fromLane="0" toLane="0"/>
    <connection from="-192081223" to="774864825" fromLane="0" toLane="0"/>
    <connection from="-192081223" to="774868601" fromLane="0" toLane="0"/>
    <connection from="-192081223" to="192081223" fromLane="0" toLane="0"/>

    <connection from="-192081224" to="774865620" fromLane="0" toLane="0"/>
    <connection from="-192081224" to="774868602" fromLane="0" toLane="0"/>
    <connection from="-192081224" to="192081224" fromLane="0" toLane="0"/>

    <connection from="-192081225" to="774867422" fromLane="0" toLane="0"/>
    <connection from="-192081225" to="774864846" fromLane="0" toLane="0"/>
    <connection from="-192081225" to="192081225" fromLane="0" toLane="0"/>

    <connection from="-192081226" to="774865621" fromLane="0" toLane="0"/>
    <connection from="-192081226" to="774865399" fromLane="0" toLane="0"/>
    <connection from="-192081226" to="774868603" fromLane="0" toLane="0"/>
    <connection from="-192081226" to="192081226" fromLane="0" toLane="0"/>

    <connection from="-192081399" to="192081399" fromLane="0" toLane="0"/>

    <connection from="-192081400" to="774866696" fromLane="0" toLane="0"/>
    <connection from="-192081400" to="-192081399" fromLane="0" toLane="0"/>
    <connection from="-192081400" to="774864220" fromLane="0" toLane="0"/>
    <connection from="-192081400" to="192081400" fromLane="0" toLane="0"/>

    <connection from="-192081402" to="774865725" fromLane="0" toLane="0"/>
    <connection from="-192081402" to="774868791" fromLane="0" toLane="0"/>
    <connection from="-192081402" to="192081402" fromLane="0" toLane="0"/>

    <connection from="-192090682" to="774867144" fromLane="0" toLane="0"/>
    <connection from="-192090682" to="774864623" fromLane="0" toLane="0"/>
    <connection from="-192090682" to="192090682" fromLane="0" toLane="0"/>

    <connection from="-192254005" to="774868749" fromLane="0" toLane="0"/>
    <connection from="-192254005" to="774866367" fromLane="0" toLane="0"/>
    <connection from="-192254005" to="774865685" fromLane="0" toLane="0"/>
    <connection from="-192254005" to="192254005" fromLane="0" toLane="0"/>

    <connection from="-192254007" to="192254007" fromLane="0" toLane="0"/>

    <connection from="-192254315" to="774868154" fromLane="0" toLane="0"/>
    <connection from="-192254315" to="192254315" fromLane="0" toLane="0"/>

    <connection from="-192254316" to="774868158" fromLane="0" toLane="0"/>
    <connection from="-192254316" to="192254316" fromLane="0" toLane="0"/>

    <connection from="-192254318" to="774864492" fromLane="0" toLane="0"/>
    <connection from="-192254318" to="774866976" fromLane="0" toLane="0"/>
    <connection from="-192254318" to="192254318" fromLane="0" toLane="0"/>

    <connection from="-192254320" to="774868152" fromLane="0" toLane="0"/>
    <connection from="-192254320" to="192254320" fromLane="0" toLane="0"/>

    <connection from="-192254322" to="774868156" fromLane="0" toLane="0"/>
    <connection from="-192254322" to="192254322" fromLane="0" toLane="0"/>

    <connection from="-192254323" to="774868155" fromLane="0" toLane="0"/>
    <connection from="-192254323" to="192254323" fromLane="0" toLane="0"/>

    <connection from="-192261754" to="192261754" fromLane="0" toLane="0"/>

    <connection from="-192281485" to="774866378" fromLane="0" toLane="0"/>
    <connection from="-192281485" to="442680946" fromLane="0" toLane="0"/>
    <connection from="-192281485" to="774864027" fromLane="0" toLane="0"/>
    <connection from="-192281485" to="192281485" fromLane="0" toLane="0"/>

    <connection from="-192282568" to="774863904" fromLane="0" toLane="0"/>
    <connection from="-192282568" to="774866220" fromLane="0" toLane="0"/>
    <connection from="-192282568" to="192282568" fromLane="0" toLane="0"/>

    <connection from="-192282574" to="774867768" fromLane="0" toLane="0"/>
    <connection from="-192282574" to="774865119" fromLane="0" toLane="0"/>
    <connection from="-192282574" to="192282574" fromLane="0" toLane="0"/>

    <connection from="-192282575" to="774867769" fromLane="0" toLane="0"/>
    <connection from="-192282575" to="774865120" fromLane="0" toLane="0"/>
    <connection from="-192282575" to="192282575" fromLane="0" toLane="0"/>

    <connection from="-192282845" to="774867829" fromLane="0" toLane="0"/>
    <connection from="-192282845" to="774865154" fromLane="0" toLane="0"/>
    <connection from="-192282845" to="192282845" fromLane="0" toLane="0"/>

    <connection from="-192282846" to="192282846" fromLane="0" toLane="0"/>

    <connection from="-192282848" to="192282848" fromLane="0" toLane="0"/>

    <connection from="-192282849" to="192282849" fromLane="0" toLane="0"/>

    <connection from="-192282850" to="774865412" fromLane="0" toLane="0"/>
    <connection from="-192282850" to="774868249" fromLane="0" toLane="1"/>
    <connection from="-192282850" to="192282850" fromLane="0" toLane="0"/>

    <connection from="-192926516" to="774868373" fromLane="0" toLane="0"/>
    <connection from="-192926516" to="192926516" fromLane="0" toLane="0"/>

    <connection from="-192926517" to="774865702" fromLane="0" toLane="0"/>
    <connection from="-192926517" to="774868769" fromLane="0" toLane="0"/>
    <connection from="-192926517" to="192926517" fromLane="0" toLane="0"/>

    <connection from="-192926527" to="774868317" fromLane="0" toLane="0"/>
    <connection from="-192926527" to="192926527" fromLane="0" toLane="0"/>

    <connection from="-192926530" to="774867622" fromLane="0" toLane="0"/>
    <connection from="-192926530" to="774864976" fromLane="0" toLane="1"/>
    <connection from="-192926530" to="192926530" fromLane="0" toLane="0"/>

    <connection from="-192926534" to="192926534" fromLane="0" toLane="0"/>

    <connection from="-192946429" to="774867904" fromLane="0" toLane="0"/>
    <connection from="-192946429" to="774865229" fromLane="0" toLane="0"/>
    <connection from="-192946429" to="192946429" fromLane="0" toLane="0"/>

    <connection from="-192946430" to="774865214" fromLane="0" toLane="0"/>
    <connection from="-192946430" to="774864072" fromLane="0" toLane="0"/>
    <connection from="-192946430" to="774867889" fromLane="0" toLane="0"/>
    <connection from="-192946430" to="192946430" fromLane="0" toLane="0"/>

    <connection from="-192947710" to="774868264" fromLane="0" toLane="0"/>
    <connection from="-192947710" to="192947710" fromLane="0" toLane="0"/>

    <connection from="-192947711" to="192947711" fromLane="0" toLane="0"/>

    <connection from="-192947712" to="192947712" fromLane="0" toLane="0"/>

    <connection from="-192947713" to="774866422" fromLane="0" toLane="0"/>
    <connection from="-192947713" to="192947713" fromLane="0" toLane="0"/>

    <connection from="-192947714" to="774868263" fromLane="0" toLane="0"/>
    <connection from="-192947714" to="192947714" fromLane="0" toLane="0"/>

    <connection from="-192947715" to="192947715" fromLane="0" toLane="0"/>

    <connection from="-192947717" to="774868262" fromLane="0" toLane="0"/>
    <connection from="-192947717" to="192947717" fromLane="0" toLane="0"/>

    <connection from="-192947718" to="192947718" fromLane="0" toLane="0"/>

    <connection from="-192947720" to="774868265" fromLane="0" toLane="0"/>
    <connection from="-192947720" to="192947720" fromLane="0" toLane="0"/>

    <connection from="-192950655" to="774864562" fromLane="0" toLane="0"/>
    <connection from="-192950655" to="774865170" fromLane="0" toLane="0"/>
    <connection from="-192950655" to="774867071" fromLane="0" toLane="0"/>
    <connection from="-192950655" to="774867844" fromLane="0" toLane="0"/>

    <connection from="-192950656" to="774867071" fromLane="0" toLane="0"/>
    <connection from="-192950656" to="774867844" fromLane="0" toLane="0"/>
    <connection from="-192950656" to="774864562" fromLane="0" toLane="0"/>
    <connection from="-192950656" to="774865170" fromLane="0" toLane="0"/>

    <connection from="-192952229" to="774868480" fromLane="0" toLane="0"/>
    <connection from="-192952229" to="192952229" fromLane="0" toLane="0"/>

    <connection from="-192952231" to="774868478" fromLane="0" toLane="0"/>
    <connection from="-192952231" to="192952231" fromLane="0" toLane="0"/>

    <connection from="-192952234" to="774865537" fromLane="0" toLane="0"/>
    <connection from="-192952234" to="774868482" fromLane="0" toLane="0"/>
    <connection from="-192952234" to="192952234" fromLane="0" toLane="0"/>

    <connection from="-192952235" to="774868477" fromLane="0" toLane="0"/>
    <connection from="-192952235" to="192952235" fromLane="0" toLane="0"/>

    <connection from="-192994543" to="774867686" fromLane="0" toLane="0"/>
    <connection from="-192994543" to="774865038" fromLane="0" toLane="0"/>
    <connection from="-192994543" to="192994543" fromLane="0" toLane="0"/>

    <connection from="-192996249" to="774868538" fromLane="0" toLane="0"/>
    <connection from="-192996249" to="192996249" fromLane="0" toLane="0"/>

    <connection from="-192996560" to="774867632" fromLane="0" toLane="0"/>
    <connection from="-192996560" to="774868684" fromLane="0" toLane="1"/>
    <connection from="-192996560" to="192996562" fromLane="0" toLane="0"/>

    <connection from="-196464365" to="774864123" fromLane="0" toLane="0"/>
    <connection from="-196464365" to="-192254323" fromLane="0" toLane="0"/>
    <connection from="-196464365" to="774866478" fromLane="0" toLane="0"/>
    <connection from="-196464365" to="196464365" fromLane="0" toLane="0"/>

    <connection from="-196464366" to="774864120" fromLane="0" toLane="0"/>
    <connection from="-196464366" to="-192254316" fromLane="0" toLane="0"/>
    <connection from="-196464366" to="774866475" fromLane="0" toLane="0"/>
    <connection from="-196464366" to="196464366" fromLane="0" toLane="0"/>

    <connection from="-196464367" to="774866480" fromLane="0" toLane="0"/>
    <connection from="-196464367" to="774864125" fromLane="0" toLane="0"/>
    <connection from="-196464367" to="196464367" fromLane="0" toLane="0"/>

    <connection from="-196464368" to="774864122" fromLane="0" toLane="0"/>
    <connection from="-196464368" to="-192254322" fromLane="0" toLane="0"/>
    <connection from="-196464368" to="774866477" fromLane="0" toLane="0"/>
    <connection from="-196464368" to="196464368" fromLane="0" toLane="0"/>

    <connection from="-198020592" to="774867046" fromLane="0" toLane="0"/>
    <connection from="-198020592" to="198020592" fromLane="0" toLane="0"/>

    <connection from="-202596812" to="202596812" fromLane="0" toLane="0"/>

    <connection from="-213559662" to="213559662" fromLane="0" toLane="0"/>

    <connection from="-217079071" to="774865667" fromLane="0" toLane="0"/>
    <connection from="-217079071" to="-38654784" fromLane="0" toLane="0"/>
    <connection from="-217079071" to="774868729" fromLane="0" toLane="0"/>
    <connection from="-217079071" to="217079071" fromLane="0" toLane="0"/>

    <connection from="-217079075" to="774866579" fromLane="0" toLane="0"/>
    <connection from="-217079075" to="774864166" fromLane="0" toLane="0"/>
    <connection from="-217079075" to="217079075" fromLane="0" toLane="0"/>

    <connection from="-222028770" to="774864168" fromLane="0" toLane="0"/>
    <connection from="-222028770" to="774866580" fromLane="0" toLane="0"/>
    <connection from="-222028770" to="222028770" fromLane="0" toLane="0"/>

    <connection from="-222254291" to="774865891" fromLane="0" toLane="0"/>

    <connection from="-236759915" to="774864182" fromLane="0" toLane="0"/>
    <connection from="-236759915" to="774866651" fromLane="0" toLane="0"/>
    <connection from="-236759915" to="236759915" fromLane="0" toLane="0"/>

    <connection from="-236759916" to="774864181" fromLane="0" toLane="0"/>
    <connection from="-236759916" to="774866650" fromLane="0" toLane="0"/>
    <connection from="-236759916" to="236759916" fromLane="0" toLane="0"/>

    <connection from="-236759919" to="774864180" fromLane="0" toLane="0"/>
    <connection from="-236759919" to="774866649" fromLane="0" toLane="0"/>
    <connection from="-236759919" to="236759919" fromLane="0" toLane="0"/>

    <connection from="-236759920" to="774864179" fromLane="0" toLane="0"/>
    <connection from="-236759920" to="774866648" fromLane="0" toLane="0"/>
    <connection from="-236759920" to="236759920" fromLane="0" toLane="0"/>

    <connection from="-236759921" to="774864178" fromLane="0" toLane="0"/>
    <connection from="-236759921" to="774866647" fromLane="0" toLane="0"/>
    <connection from="-236759921" to="236759921" fromLane="0" toLane="0"/>

    <connection from="-236843914" to="774864175" fromLane="0" toLane="0"/>
    <connection from="-236843914" to="774866644" fromLane="0" toLane="0"/>
    <connection from="-236843914" to="236843914" fromLane="0" toLane="0"/>

    <connection from="-236843928" to="774863865" fromLane="0" toLane="0"/>
    <connection from="-236843928" to="774866124" fromLane="0" toLane="0"/>
    <connection from="-236843928" to="236843928" fromLane="0" toLane="0"/>

    <connection from="-236844963" to="774864198" fromLane="0" toLane="0"/>
    <connection from="-236844963" to="-236844964" fromLane="0" toLane="0"/>
    <connection from="-236844963" to="774866669" fromLane="0" toLane="0"/>

    <connection from="-236844964" to="774864192" fromLane="0" toLane="0"/>
    <connection from="-236844964" to="774866664" fromLane="0" toLane="0"/>
    <connection from="-236844964" to="236844964" fromLane="0" toLane="0"/>

    <connection from="-236844965" to="774864191" fromLane="0" toLane="0"/>
    <connection from="-236844965" to="774866663" fromLane="0" toLane="0"/>
    <connection from="-236844965" to="236844965" fromLane="0" toLane="0"/>

    <connection from="-236844966" to="774864190" fromLane="0" toLane="0"/>
    <connection from="-236844966" to="774866662" fromLane="0" toLane="0"/>
    <connection from="-236844966" to="236844966" fromLane="0" toLane="0"/>

    <connection from="-236844967" to="774864189" fromLane="0" toLane="0"/>
    <connection from="-236844967" to="774866661" fromLane="0" toLane="0"/>
    <connection from="-236844967" to="236844967" fromLane="0" toLane="0"/>

    <connection from="-244113980" to="774865593" fromLane="0" toLane="0"/>
    <connection from="-244113980" to="774863849" fromLane="0" toLane="0"/>
    <connection from="-244113980" to="774866523" fromLane="0" toLane="3"/>
    <connection from="-244113980" to="244113980" fromLane="0" toLane="1"/>

    <connection from="-244628714" to="244628714" fromLane="0" toLane="0"/>

    <connection from="-244628717" to="244628717" fromLane="0" toLane="0"/>

    <connection from="-24475713" to="774866732" fromLane="0" toLane="0"/>
    <connection from="-24475713" to="774864252" fromLane="0" toLane="0"/>
    <connection from="-24475713" to="24475713" fromLane="0" toLane="0"/>

    <connection from="-24742619" to="774864932" fromLane="0" toLane="0"/>
    <connection from="-24742619" to="774866314" fromLane="0" toLane="0"/>
    <connection from="-24742619" to="774867522" fromLane="0" toLane="0"/>
    <connection from="-24742619" to="24742619" fromLane="0" toLane="0"/>

    <connection from="-24742700" to="774864344" fromLane="0" toLane="0"/>
    <connection from="-24742700" to="774864342" fromLane="0" toLane="0"/>
    <connection from="-24742700" to="774866824" fromLane="0" toLane="0"/>

    <connection from="-24742704" to="774864302" fromLane="0" toLane="0"/>
    <connection from="-24742704" to="774866784" fromLane="0" toLane="0"/>
    <connection from="-24742704" to="24742704" fromLane="0" toLane="0"/>

    <connection from="-24742715" to="774863839" fromLane="0" toLane="0"/>
    <connection from="-24742715" to="774866060" fromLane="0" toLane="0"/>
    <connection from="-24742715" to="24742715" fromLane="0" toLane="0"/>

    <connection from="-24742717" to="774864353" fromLane="0" toLane="0"/>
    <connection from="-24742717" to="774866836" fromLane="0" toLane="0"/>
    <connection from="-24742717" to="24742717" fromLane="0" toLane="0"/>

    <connection from="-24742718" to="774864354" fromLane="0" toLane="0"/>
    <connection from="-24742718" to="774866845" fromLane="0" toLane="0"/>
    <connection from="-24742718" to="24742718" fromLane="0" toLane="0"/>

    <connection from="-24742719" to="774866059" fromLane="0" toLane="0"/>
