<?xml version="1.0" encoding="UTF-8"?>

<!-- generated on 02/25/20 18:57:26 by Eclipse SUMO netconvert Version 1.3.1
<configuration xmlns:xsi="http://www.w3.org/2001/XMLSchema-instance" xsi:noNamespaceSchemaLocation="http://sumo.dlr.de/xsd/netconvertConfiguration.xsd">

    <input>
        <osm-files value="macul.osm"/>
    </input>

    <output>
        <output-file value="macul.net.xml"/>
        <plain-output-prefix value="macul"/>
    </output>

    <projection>
        <proj.utm value="true"/>
    </projection>

    <processing>
        <numerical-ids value="true"/>
        <geometry.remove value="true"/>
    </processing>

    <tls_building>
        <tls.discard-simple value="true"/>
        <tls.join value="true"/>
        <tls.guess-signals value="true"/>
    </tls_building>

    <ramp_guessing>
        <ramps.guess value="true"/>
    </ramp_guessing>

    <junctions>
        <junctions.join value="true"/>
    </junctions>

</configuration>
-->

<edges version="1.3" xmlns:xsi="http://www.w3.org/2001/XMLSchema-instance" xsi:noNamespaceSchemaLocation="http://sumo.dlr.de/xsd/edges_file.xsd">
    <edge id="-122089452" from="1365107174" to="4403448010" priority="1" type="highway.service" numLanes="1" speed="5.56" shape="3068.65,1057.00 3078.07,1096.39 3179.91,1073.60 3171.03,1035.91" allow="pedestrian delivery bicycle"/>
    <edge id="-122089454" from="1365107175" to="1365107186" priority="3" type="highway.residential" numLanes="1" speed="13.89" shape="3213.92,947.22 3120.00,966.81 3102.40,976.83 3048.50,989.28 3043.10,991.80 3038.92,996.08 3034.56,1004.20 3020.16,1023.95" disallow="tram rail_urban rail rail_electric rail_fast ship"/>
    <edge id="-123543018" from="276284042" to="276284032" priority="3" type="highway.residential" numLanes="1" speed="13.89" shape="2623.74,2697.83 2605.21,2538.36 2604.82,2534.66 2602.72,2531.99 2599.48,2530.32 2595.99,2529.70 2475.83,2544.18" disallow="tram rail_urban rail rail_electric rail_fast ship"/>
    <edge id="-126099162" from="457755825" to="6824567032" priority="3" type="highway.residential" numLanes="1" speed="13.89" shape="3385.49,1958.77 3478.00,1906.53 3484.30,1903.15 3488.97,1903.27 3494.59,1906.16" disallow="tram rail_urban rail rail_electric rail_fast ship"/>
    <edge id="-127777482" from="268899711" to="268899705" priority="3" type="highway.residential" numLanes="1" speed="13.89" shape="872.33,3852.65 987.63,3858.86 992.67,3855.61" disallow="tram rail_urban rail rail_electric rail_fast ship"/>
    <edge id="-139486974" from="1529079920" to="1529079914" priority="1" type="highway.service" numLanes="1" speed="5.56" shape="907.08,2587.20 906.73,2599.17 902.72,2603.96 897.76,2609.88 863.91,2606.63 844.70,2612.48" allow="pedestrian delivery bicycle"/>
    <edge id="-156380618" from="1686326861" to="1686326858" priority="1" type="highway.service" numLanes="1" speed="5.56" allow="pedestrian delivery bicycle"/>
    <edge id="-156389411" from="615090148" to="148849147" priority="1" type="highway.service" numLanes="1" speed="5.56" shape="918.04,1793.47 1113.97,1817.17 1123.15,1820.19 1129.32,1824.39 1138.01,1831.50 1147.31,1840.69" allow="pedestrian delivery bicycle"/>
    <edge id="-158120632" from="1703763544" to="1703763546" priority="3" type="highway.residential" numLanes="1" speed="13.89" disallow="tram rail_urban rail rail_electric rail_fast ship"/>
    <edge id="-158120633" from="1703763540" to="1703763542" priority="3" type="highway.residential" numLanes="1" speed="13.89" disallow="tram rail_urban rail rail_electric rail_fast ship"/>
    <edge id="-159548522" from="605182780" to="2025429139" priority="2" type="highway.living_street" numLanes="1" speed="16.67" shape="3066.52,3876.36 3137.24,3873.46 3140.40,3874.81 3141.92,3876.89 3142.33,3879.85 3142.64,3919.67" disallow="tram rail_urban rail rail_electric rail_fast ship"/>
    <edge id="-165671871" from="1772130857" to="1772130890" priority="1" type="highway.service" numLanes="1" speed="5.56" allow="pedestrian delivery bicycle"/>
    <edge id="-165671875" from="1772130806" to="1772130867" priority="1" type="highway.service" numLanes="1" speed="5.56" allow="pedestrian delivery bicycle"/>
    <edge id="-165671878" from="1772130855" to="1772130904" priority="1" type="highway.service" numLanes="1" speed="5.56" allow="pedestrian delivery bicycle"/>
    <edge id="-165671880" from="1772130763" to="1772130827" priority="1" type="highway.service" numLanes="1" speed="5.56" allow="pedestrian delivery bicycle"/>
    <edge id="-165671883" from="1772130830" to="1772130875" priority="1" type="highway.service" numLanes="1" speed="5.56" allow="pedestrian delivery bicycle"/>
    <edge id="-165671885" from="1772130935" to="1772130859" priority="1" type="highway.service" numLanes="1" speed="5.56" allow="pedestrian delivery bicycle"/>
    <edge id="-165671888" from="1772130798" to="1772130787" priority="1" type="highway.service" numLanes="1" speed="5.56" allow="pedestrian delivery bicycle"/>
    <edge id="-165671892" from="1772130792" to="1772130755" priority="1" type="highway.service" numLanes="1" speed="5.56" allow="pedestrian delivery bicycle"/>
    <edge id="-165671893" from="1772130824" to="1772130930" priority="1" type="highway.service" numLanes="1" speed="5.56" allow="pedestrian delivery bicycle"/>
    <edge id="-165671894" from="1772130840" to="1772130768" priority="1" type="highway.service" numLanes="1" speed="5.56" allow="pedestrian delivery bicycle"/>
    <edge id="-181033250" from="605182270" to="1914790308" priority="2" type="highway.living_street" numLanes="1" speed="2.78" disallow="tram rail_urban rail rail_electric rail_fast ship"/>
    <edge id="-181033258" from="605181511" to="605181512" priority="3" type="highway.residential" numLanes="1" speed="13.89" disallow="tram rail_urban rail rail_electric rail_fast ship"/>
    <edge id="-181033263" from="605181510" to="1914790315" priority="2" type="highway.living_street" numLanes="1" speed="5.56" shape="2150.33,3178.86 2180.82,3178.22 2244.08,3176.92" disallow="tram rail_urban rail rail_electric rail_fast ship"/>
    <edge id="-181033291" from="605181505" to="1914791365" priority="3" type="highway.residential" numLanes="1" speed="13.89" disallow="tram rail_urban rail rail_electric rail_fast ship"/>
    <edge id="-181033402" from="1914792762" to="605172392" priority="2" type="highway.living_street" numLanes="1" speed="2.78" disallow="tram rail_urban rail rail_electric rail_fast ship"/>
    <edge id="-181033409" from="605172661" to="1914792790" priority="3" type="highway.residential" numLanes="1" speed="13.89" shape="2099.91,1435.72 2194.63,1433.26 2210.96,1444.93" disallow="tram rail_urban rail rail_electric rail_fast ship"/>
    <edge id="-181033412" from="1914792764" to="605172391" priority="2" type="highway.living_street" numLanes="1" speed="2.78" disallow="tram rail_urban rail rail_electric rail_fast ship"/>
    <edge id="-181033413" from="605172695" to="2028131414" priority="2" type="highway.living_street" numLanes="1" speed="2.78" disallow="tram rail_urban rail rail_electric rail_fast ship"/>
    <edge id="-181033414" from="1914792775" to="1914792753" priority="2" type="highway.living_street" numLanes="1" speed="2.78" disallow="tram rail_urban rail rail_electric rail_fast ship"/>
    <edge id="-181033416" from="605172788" to="1914792777" priority="2" type="highway.living_street" numLanes="1" speed="2.78" shape="2593.27,967.12 2701.01,1037.84 2714.90,1049.18" disallow="tram rail_urban rail rail_electric rail_fast ship"/>
    <edge id="-181033418" from="7231168018" to="1914792801" priority="2" type="highway.living_street" numLanes="1" speed="2.78" shape="2095.26,1261.49 2148.26,1258.79 2207.12,1257.33" disallow="tram rail_urban rail rail_electric rail_fast ship"/>
    <edge id="-181033419" from="4432086654" to="6006314401" priority="2" type="highway.living_street" numLanes="1" speed="2.78" shape="2317.37,1394.24 2236.98,1343.07 2234.86,1329.23 2228.99,1324.25" disallow="tram rail_urban rail rail_electric rail_fast ship"/>
    <edge id="-181033420" from="1914792749" to="7231168146" priority="3" type="highway.residential" numLanes="1" speed="13.89" shape="2450.17,1070.51 2505.33,985.93" disallow="tram rail_urban rail rail_electric rail_fast ship"/>
    <edge id="-181033423" from="738124035" to="1914792806" priority="2" type="highway.living_street" numLanes="1" speed="2.78" disallow="tram rail_urban rail rail_electric rail_fast ship"/>
    <edge id="-181033424" from="605172693" to="2028131410" priority="2" type="highway.living_street" numLanes="1" speed="2.78" disallow="tram rail_urban rail rail_electric rail_fast ship"/>
    <edge id="-183595030" from="1939997133" to="1939997134" priority="2" type="highway.living_street" numLanes="1" speed="2.78" disallow="tram rail_urban rail rail_electric rail_fast ship"/>
    <edge id="-183595031" from="900114708" to="7231168022" priority="2" type="highway.living_street" numLanes="1" speed="2.78" shape="4007.28,3255.68 3936.86,3276.79" disallow="tram rail_urban rail rail_electric rail_fast ship"/>
    <edge id="-183595038" from="1939997130" to="1939997123" priority="2" type="highway.living_street" numLanes="1" speed="2.78" shape="4020.93,3339.83 4011.96,3342.43 3959.69,3358.08" disallow="tram rail_urban rail rail_electric rail_fast ship"/>
    <edge id="-183595041" from="900114685" to="7231168023" priority="2" type="highway.living_street" numLanes="1" speed="2.78" shape="4016.21,3313.05 4007.92,3315.87 3951.92,3330.43" disallow="tram rail_urban rail rail_electric rail_fast ship"/>
    <edge id="-183595043" from="7231168102" to="1939997135" priority="3" type="highway.residential" numLanes="1" speed="13.89" shape="3877.37,3429.47 3858.85,3364.37" disallow="tram rail_urban rail rail_electric rail_fast ship"/>
    <edge id="-186574826" from="1973143289" to="1973143286" priority="2" type="highway.living_street" numLanes="1" speed="2.78" shape="3651.70,3301.84 3647.08,3284.66 3646.06,3280.85 3627.54,3209.75" disallow="tram rail_urban rail rail_electric rail_fast ship"/>
    <edge id="-186984722" from="1977405992" to="282823379" priority="3" type="highway.residential" numLanes="1" speed="13.89" shape="3755.54,3968.71 3747.55,3971.53 3496.27,4030.70" disallow="tram rail_urban rail rail_electric rail_fast ship"/>
    <edge id="-186985486" from="3684165535" to="1977412973" priority="3" type="highway.residential" numLanes="1" speed="13.89" shape="1912.50,858.88 1939.43,1048.76 1958.07,1064.40" disallow="tram rail_urban rail rail_electric rail_fast ship"/>
    <edge id="-187763658" from="605181532" to="1983998877" priority="2" type="highway.living_street" numLanes="1" speed="2.78" shape="1938.57,3840.22 1948.44,3840.42 2062.35,3842.88" disallow="tram rail_urban rail rail_electric rail_fast ship"/>
    <edge id="-187763733" from="605182710" to="648690734" priority="2" type="highway.living_street" numLanes="1" speed="2.78" shape="2426.69,3978.35 2474.34,3978.35 2470.72,3885.77" disallow="tram rail_urban rail rail_electric rail_fast ship"/>
    <edge id="-187764006" from="1984001824" to="605182734" priority="2" type="highway.living_street" numLanes="1" speed="2.78" disallow="tram rail_urban rail rail_electric rail_fast ship"/>
    <edge id="-187764178" from="1984003214" to="1984003215" priority="3" type="highway.residential" numLanes="1" speed="13.89" disallow="tram rail_urban rail rail_electric rail_fast ship"/>
    <edge id="-187764179" from="7231168030" to="515257980" priority="2" type="highway.living_street" numLanes="1" speed="2.78" shape="2496.90,3477.91 2498.59,3519.65 2488.70,3519.91" disallow="tram rail_urban rail rail_electric rail_fast ship"/>
    <edge id="-187764240" from="1984004346" to="1984004344" priority="3" type="highway.residential" numLanes="1" speed="13.89" shape="2639.88,3428.69 2549.52,3430.93 2547.45,3430.36 2545.43,3428.97 2544.03,3426.90 2542.90,3388.91 2542.86,3377.54" disallow="tram rail_urban rail rail_electric rail_fast ship"/>
    <edge id="-187764241" from="605182356" to="1984004347" priority="3" type="highway.residential" numLanes="1" speed="13.89" disallow="tram rail_urban rail rail_electric rail_fast ship"/>
    <edge id="-187764355" from="1984006470" to="7231168032" priority="3" type="highway.residential" numLanes="1" speed="13.89" shape="2978.15,3506.34 2977.06,3509.20 2980.49,3622.83" disallow="tram rail_urban rail rail_electric rail_fast ship"/>
    <edge id="-187764356" from="1984006464" to="1984006463" priority="2" type="highway.living_street" numLanes="1" speed="2.78" shape="2881.73,3420.15 2835.39,3421.17 2837.67,3510.56" disallow="tram rail_urban rail rail_electric rail_fast ship"/>
    <edge id="-187764837" from="1984009548" to="1984009550" priority="2" type="highway.living_street" numLanes="1" speed="2.78" disallow="tram rail_urban rail rail_electric rail_fast ship"/>
    <edge id="-191939647" from="2024990417" to="2024990412" priority="2" type="highway.living_street" numLanes="1" speed="2.78" disallow="tram rail_urban rail rail_electric rail_fast ship"/>
    <edge id="-191939652" from="605182755" to="605182766" priority="3" type="highway.residential" numLanes="1" speed="13.89" disallow="tram rail_urban rail rail_electric rail_fast ship"/>
    <edge id="-191965059" from="1984002386" to="1984002383" priority="2" type="highway.living_street" numLanes="1" speed="2.78" shape="2689.18,3734.69 2638.15,3736.28 2640.66,3800.23" disallow="tram rail_urban rail rail_electric rail_fast ship"/>
    <edge id="-191976794" from="2025429139" to="2025429145" priority="2" type="highway.living_street" numLanes="1" speed="2.78" disallow="tram rail_urban rail rail_electric rail_fast ship"/>
    <edge id="-191976799" from="1984009553" to="7231168035" priority="2" type="highway.living_street" numLanes="1" speed="2.78" shape="2919.16,3675.11 2921.48,3722.83" disallow="tram rail_urban rail rail_electric rail_fast ship"/>
    <edge id="-192078927" from="421894105" to="421893890" priority="3" type="highway.residential" numLanes="1" speed="13.89" shape="3064.48,3415.47 3018.14,3417.15 3021.88,3505.03" disallow="tram rail_urban rail rail_electric rail_fast ship"/>
    <edge id="-192079164" from="2026361428" to="2026361432" priority="3" type="highway.residential" numLanes="1" speed="13.89" disallow="tram rail_urban rail rail_electric rail_fast ship"/>
    <edge id="-192079166" from="2026361434" to="2026361438" priority="3" type="highway.residential" numLanes="1" speed="13.89" disallow="tram rail_urban rail rail_electric rail_fast ship"/>
    <edge id="-192079169" from="2026361436" to="605182284" priority="2" type="highway.living_street" numLanes="1" speed="2.78" shape="2606.58,3118.74 2602.91,3086.30 2601.47,3073.59" disallow="tram rail_urban rail rail_electric rail_fast ship"/>
    <edge id="-192081223" from="2026387687" to="7231168068" priority="3" type="highway.residential" numLanes="1" speed="13.89" shape="2884.70,2966.15 2898.00,3050.51" disallow="tram rail_urban rail rail_electric rail_fast ship"/>
    <edge id="-192081224" from="2026387691" to="605182352" priority="3" type="highway.residential" numLanes="1" speed="13.89" disallow="tram rail_urban rail rail_electric rail_fast ship"/>
    <edge id="-192081225" from="2026387678" to="2026387689" priority="2" type="highway.living_street" numLanes="1" speed="2.78" disallow="tram rail_urban rail rail_electric rail_fast ship"/>
    <edge id="-192081226" from="2026387693" to="7231168220" priority="3" type="highway.residential" numLanes="1" speed="13.89" shape="2768.56,2945.91 2786.37,3059.29" disallow="tram rail_urban rail rail_electric rail_fast ship"/>
    <edge id="-192081399" from="7231168219" to="2026389514" priority="3" type="highway.residential" numLanes="1" speed="13.89" shape="3421.42,2663.51 3383.56,2673.63" disallow="tram rail_urban rail rail_electric rail_fast ship"/>
    <edge id="-192081400" from="2026389567" to="7231168219" priority="3" type="highway.residential" numLanes="1" speed="13.89" shape="3539.98,2616.47 3417.80,2649.87" disallow="tram rail_urban rail rail_electric rail_fast ship"/>
    <edge id="-192081402" from="605182617" to="2026389581" priority="2" type="highway.living_street" numLanes="1" speed="2.78" shape="3798.33,2707.08 3799.75,2712.40 3820.39,2790.24" disallow="tram rail_urban rail rail_electric rail_fast ship"/>
    <edge id="-192090682" from="605182813" to="605182826" priority="3" type="highway.residential" numLanes="1" speed="13.89" disallow="tram rail_urban rail rail_electric rail_fast ship"/>
    <edge id="-192254005" from="7231168116" to="276281362" priority="3" type="highway.residential" numLanes="1" speed="13.89" shape="1921.75,2095.77 1818.98,2097.00" disallow="tram rail_urban rail rail_electric rail_fast ship"/>
    <edge id="-192254007" from="7231168113" to="2028131405" priority="2" type="highway.living_street" numLanes="1" speed="2.78" shape="1918.86,1924.11 1930.45,1924.55 2004.73,1926.34" disallow="tram rail_urban rail rail_electric rail_fast ship"/>
    <edge id="-192254315" from="605172602" to="605172610" priority="3" type="highway.residential" numLanes="1" speed="13.89" disallow="tram rail_urban rail rail_electric rail_fast ship"/>
    <edge id="-192254316" from="7231168045" to="2028142219" priority="3" type="highway.residential" numLanes="1" speed="13.89" shape="1850.83,1414.30 1862.06,1616.87" disallow="tram rail_urban rail rail_electric rail_fast ship"/>
    <edge id="-192254318" from="2028142218" to="605172631" priority="3" type="highway.residential" numLanes="1" speed="13.89" shape="1568.13,1656.25 1521.32,1656.71 1521.25,1712.59" disallow="tram rail_urban rail rail_electric rail_fast ship"/>
    <edge id="-192254320" from="7231168005" to="605172611" priority="3" type="highway.residential" numLanes="1" speed="13.89" shape="1625.95,1460.59 1634.47,1609.82" disallow="tram rail_urban rail rail_electric rail_fast ship"/>
    <edge id="-192254322" from="7231168044" to="516813001" priority="3" type="highway.residential" numLanes="1" speed="13.89" shape="1775.62,1429.77 1785.21,1623.13" disallow="tram rail_urban rail rail_electric rail_fast ship"/>
    <edge id="-192254323" from="605172600" to="516812999" priority="3" type="highway.residential" numLanes="1" speed="13.89" disallow="tram rail_urban rail rail_electric rail_fast ship"/>
    <edge id="-192261754" from="7231168164" to="2028217441" priority="2" type="highway.living_street" numLanes="1" speed="2.78" shape="2050.72,1463.43 2051.08,1527.19" disallow="tram rail_urban rail rail_electric rail_fast ship"/>
    <edge id="-192281485" from="2028217451" to="7231168038" priority="2" type="highway.living_street" numLanes="1" speed="2.78" shape="2008.56,1527.47 2007.82,1488.06" disallow="tram rail_urban rail rail_electric rail_fast ship"/>
    <edge id="-192282568" from="2028412064" to="1914792765" priority="2" type="highway.living_street" numLanes="1" speed="2.78" shape="2270.99,1011.33 2275.89,1041.90 2221.79,1129.21 2205.77,1118.84 2188.35,1107.58" disallow="tram rail_urban rail rail_electric rail_fast ship"/>
    <edge id="-192282574" from="605172338" to="2028412066" priority="3" type="highway.residential" numLanes="1" speed="13.89" disallow="tram rail_urban rail rail_electric rail_fast ship"/>
    <edge id="-192282575" from="605172335" to="2028412055" priority="3" type="highway.residential" numLanes="1" speed="13.89" disallow="tram rail_urban rail rail_electric rail_fast ship"/>
    <edge id="-192282845" from="2028413029" to="605172782" priority="3" type="highway.residential" numLanes="1" speed="13.89" shape="3111.30,845.16 3052.92,807.05 3044.52,801.57" disallow="tram rail_urban rail rail_electric rail_fast ship"/>
    <edge id="-192282846" from="605172854" to="2028413033" priority="3" type="highway.residential" numLanes="1" speed="13.89" shape="3029.63,824.01 3033.26,826.39 3097.98,868.89" disallow="tram rail_urban rail rail_electric rail_fast ship"/>
    <edge id="-192282848" from="605172856" to="2028413030" priority="3" type="highway.residential" numLanes="1" speed="13.89" shape="3000.53,868.72 3004.15,871.19 3067.62,914.56" disallow="tram rail_urban rail rail_electric rail_fast ship"/>
    <edge id="-192282849" from="605172855" to="2028413028" priority="3" type="highway.residential" numLanes="1" speed="13.89" shape="3014.60,846.51 3018.40,849.00 3084.53,892.50" disallow="tram rail_urban rail rail_electric rail_fast ship"/>
    <edge id="-192282850" from="2028413026" to="605172878" priority="3" type="highway.residential" numLanes="1" speed="13.89" disallow="tram rail_urban rail rail_electric rail_fast ship"/>
    <edge id="-192926516" from="3684165528" to="2034600666" priority="2" type="highway.living_street" numLanes="1" speed="2.78" shape="1954.37,852.42 1977.29,1016.61 1992.95,1026.10" disallow="tram rail_urban rail rail_electric rail_fast ship"/>
    <edge id="-192926517" from="2034600703" to="2034600718" priority="2" type="highway.living_street" numLanes="1" speed="2.78" disallow="tram rail_urban rail rail_electric rail_fast ship"/>
    <edge id="-192926527" from="605172276" to="605172300" priority="2" type="highway.living_street" numLanes="1" speed="2.78" disallow="tram rail_urban rail rail_electric rail_fast ship"/>
    <edge id="-192926530" from="2034600668" to="3684165525" priority="2" type="highway.living_street" numLanes="1" speed="2.78" shape="2022.90,991.39 2013.67,982.87 1991.67,846.75" disallow="tram rail_urban rail rail_electric rail_fast ship"/>
    <edge id="-192926534" from="2034600693" to="2034600716" priority="2" type="highway.living_street" numLanes="1" speed="2.78" disallow="tram rail_urban rail rail_electric rail_fast ship"/>
    <edge id="-192946429" from="605173403" to="738124060" priority="2" type="highway.living_street" numLanes="1" speed="2.78" disallow="tram rail_urban rail rail_electric rail_fast ship"/>
    <edge id="-192946430" from="457756144" to="7231168039" priority="2" type="highway.living_street" numLanes="1" speed="2.78" shape="2897.31,1631.72 2904.22,1612.63 2962.58,1580.27" disallow="tram rail_urban rail rail_electric rail_fast ship"/>
    <edge id="-192947710" from="2034795449" to="2034795465" priority="3" type="highway.residential" numLanes="1" speed="13.89" disallow="tram rail_urban rail rail_electric rail_fast ship"/>
    <edge id="-192947711" from="2034795468" to="2034795462" priority="3" type="highway.residential" numLanes="1" speed="13.89" disallow="tram rail_urban rail rail_electric rail_fast ship"/>
    <edge id="-192947712" from="2034795452" to="2034795450" priority="3" type="highway.residential" numLanes="1" speed="13.89" disallow="tram rail_urban rail rail_electric rail_fast ship"/>
    <edge id="-192947713" from="2034795472" to="2034795466" priority="3" type="highway.residential" numLanes="1" speed="13.89" disallow="tram rail_urban rail rail_electric rail_fast ship"/>
    <edge id="-192947714" from="2034795467" to="2034795453" priority="3" type="highway.residential" numLanes="1" speed="13.89" disallow="tram rail_urban rail rail_electric rail_fast ship"/>
    <edge id="-192947715" from="2034795469" to="2034795456" priority="3" type="highway.residential" numLanes="1" speed="13.89" disallow="tram rail_urban rail rail_electric rail_fast ship"/>
    <edge id="-192947717" from="2034795454" to="2034795471" priority="3" type="highway.residential" numLanes="1" speed="13.89" disallow="tram rail_urban rail rail_electric rail_fast ship"/>
    <edge id="-192947718" from="2034795461" to="2034795451" priority="3" type="highway.residential" numLanes="1" speed="13.89" disallow="tram rail_urban rail rail_electric rail_fast ship"/>
    <edge id="-192947720" from="2034795459" to="2034795455" priority="3" type="highway.residential" numLanes="1" speed="13.89" disallow="tram rail_urban rail rail_electric rail_fast ship"/>
    <edge id="-192950655" from="2034823194" to="276283323" priority="3" type="highway.residential" numLanes="1" speed="13.89" shape="2560.03,1453.38 2540.80,1483.77 2518.71,1467.95" disallow="tram rail_urban rail rail_electric rail_fast ship"/>
    <edge id="-192950656" from="457756305" to="276283323" priority="3" type="highway.residential" numLanes="1" speed="13.89" shape="2516.04,1429.90 2500.65,1455.53 2518.71,1467.95" disallow="tram rail_urban rail rail_electric rail_fast ship"/>
    <edge id="-192952229" from="2034838005" to="514667009" priority="3" type="highway.residential" numLanes="1" speed="13.89" disallow="tram rail_urban rail rail_electric rail_fast ship"/>
    <edge id="-192952231" from="2034838006" to="514667001" priority="3" type="highway.residential" numLanes="1" speed="13.89" disallow="tram rail_urban rail rail_electric rail_fast ship"/>
    <edge id="-192952234" from="605172525" to="605172514" priority="3" type="highway.residential" numLanes="1" speed="13.89" disallow="tram rail_urban rail rail_electric rail_fast ship"/>
    <edge id="-192952235" from="2034838004" to="514666999" priority="3" type="highway.residential" numLanes="1" speed="13.89" disallow="tram rail_urban rail rail_electric rail_fast ship"/>
    <edge id="-192994543" from="5800302777" to="707505997" priority="3" type="highway.residential" numLanes="1" speed="13.89" shape="846.67,327.73 860.22,329.29 923.31,327.01" disallow="tram rail_urban rail rail_electric rail_fast ship"/>
    <edge id="-192996249" from="2035264158" to="605172385" priority="3" type="highway.residential" numLanes="1" speed="13.89" disallow="tram rail_urban rail rail_electric rail_fast ship"/>
    <edge id="-192996560" from="2035267225" to="7231168136" priority="2" type="highway.living_street" numLanes="1" speed="2.78" shape="1264.51,1784.02 1273.01,1796.79 1274.92,1802.53 1275.35,1806.75 1269.38,1862.74 1215.43,1858.58" disallow="tram rail_urban rail rail_electric rail_fast ship"/>
    <edge id="-196464365" from="605172374" to="605172600" priority="3" type="highway.residential" numLanes="1" speed="13.89" shape="1719.87,1361.24 1732.98,1374.01 1734.88,1381.78 1736.46,1389.54 1738.69,1405.05 1743.14,1436.37 1737.90,1437.54" disallow="tram rail_urban rail rail_electric rail_fast ship"/>
    <edge id="-196464366" from="605172416" to="7231168045" priority="3" type="highway.residential" numLanes="1" speed="13.89" shape="1817.22,1268.08 1834.65,1283.26 1855.96,1413.23" disallow="tram rail_urban rail rail_electric rail_fast ship"/>
    <edge id="-196464367" from="7231168043" to="2067976688" priority="3" type="highway.residential" numLanes="1" speed="13.89" shape="1670.48,1614.34 1663.16,1453.17" disallow="tram rail_urban rail rail_electric rail_fast ship"/>
    <edge id="-196464368" from="605172372" to="7231168044" priority="3" type="highway.residential" numLanes="1" speed="13.89" shape="1752.07,1330.63 1766.82,1344.59 1778.88,1421.32 1779.88,1428.90" disallow="tram rail_urban rail rail_electric rail_fast ship"/>
    <edge id="-198020592" from="276282906" to="738124058" priority="2" type="highway.living_street" numLanes="1" speed="2.78" disallow="tram rail_urban rail rail_electric rail_fast ship"/>
    <edge id="-202596812" from="7231168047" to="6978270489" priority="1" type="highway.service" numLanes="1" speed="5.56" shape="779.33,1533.87 778.66,1542.19 776.03,1575.27" allow="pedestrian delivery bicycle"/>
    <edge id="-213559662" from="2232342795" to="2232342794" priority="3" type="highway.residential" numLanes="1" speed="13.89" disallow="tram rail_urban rail rail_electric rail_fast ship"/>
    <edge id="-217079071" from="2263897294" to="7231168012" priority="3" type="highway.residential" numLanes="1" speed="13.89" shape="2936.85,1523.01 2895.54,1451.56" disallow="tram rail_urban rail rail_electric rail_fast ship"/>
    <edge id="-217079075" from="7231168011" to="2263897299" priority="3" type="highway.residential" numLanes="1" speed="13.89" shape="2930.02,1432.40 2969.80,1503.36" disallow="tram rail_urban rail rail_electric rail_fast ship"/>
    <edge id="-222028770" from="2232342782" to="2232342792" priority="3" type="highway.residential" numLanes="1" speed="13.89" disallow="tram rail_urban rail rail_electric rail_fast ship"/>
    <edge id="-222254291" from="14760642" to="3896840862" priority="1" type="highway.service" numLanes="1" speed="5.56" allow="pedestrian delivery bicycle"/>
    <edge id="-236759915" from="2447388171" to="2447388170" priority="1" type="highway.service" numLanes="1" speed="5.56" allow="pedestrian delivery bicycle"/>
    <edge id="-236759916" from="2447388173" to="2447388172" priority="1" type="highway.service" numLanes="1" speed="5.56" allow="pedestrian delivery bicycle"/>
    <edge id="-236759919" from="2447388177" to="2447388176" priority="1" type="highway.service" numLanes="1" speed="5.56" allow="pedestrian delivery bicycle"/>
    <edge id="-236759920" from="2447388179" to="2447388178" priority="1" type="highway.service" numLanes="1" speed="5.56" allow="pedestrian delivery bicycle"/>
    <edge id="-236759921" from="2447388181" to="2447388180" priority="1" type="highway.service" numLanes="1" speed="5.56" allow="pedestrian delivery bicycle"/>
    <edge id="-236843914" from="7231168190" to="1699122080" priority="1" type="highway.service" numLanes="1" speed="5.56" shape="766.19,977.09 768.32,991.47 766.74,1016.49" allow="pedestrian delivery bicycle"/>
    <edge id="-236843928" from="2448106478" to="2448106472" priority="1" type="highway.service" numLanes="1" speed="5.56" shape="1483.05,1383.03 1420.25,1487.90 1418.56,1488.79 1416.30,1489.12 1410.87,1488.57 1395.70,1486.48 1392.27,1486.54 1389.21,1487.18 1385.10,1488.25 1380.43,1490.59" allow="pedestrian delivery bicycle"/>
    <edge id="-236844963" from="2448113608" to="2448113614" priority="1" type="highway.service" numLanes="1" speed="5.56" shape="1053.15,1012.23 1050.56,979.44 1066.26,977.87" allow="pedestrian delivery bicycle"/>
    <edge id="-236844964" from="2448113614" to="2448113611" priority="1" type="highway.service" numLanes="1" speed="5.56" allow="pedestrian delivery bicycle"/>