<configuration xmlns:xsi="http://www.w3.org/2001/XMLSchema-instance" xsi:noNamespaceSchemaLocation="http://sumo.dlr.de/xsd/netconvertConfiguration.xsd">

    <input>
        <osm-files value="macul.osm"/>
    </input>

    <output>
        <output-file value="macul.net.xml"/>
        <plain-output-prefix value="macul"/>
    </output>

    <projection>
        <proj.utm value="true"/>
    </projection>

    <processing>
        <geometry.remove value="true"/>
        <ramps.guess value="true"/>
        <junctions.join value="true"/>
        <tls.guess-signals value="true"/>
        <tls.discard-simple value="true"/>
        <tls.join value="true"/>
        <numerical-ids value="true"/>
    </processing>
</configuration>
