<?xml version="1.0" encoding="UTF-8"?>

<!-- generated on 02/25/20 14:57:10 by Eclipse SUMO netedit Version 1.3.1
<configuration xmlns:xsi="http://www.w3.org/2001/XMLSchema-instance" xsi:noNamespaceSchemaLocation="http://sumo.dlr.de/xsd/netconvertConfiguration.xsd">

    <input>
        <sumo-net-file value="C:\Users\jpfut\Proyectos\EVFleetRouting\examples\osm-sumo-macul\data\macul.net.xml"/>
    </input>

    <output>
        <output-file value="C:\Users\jpfut\Proyectos\EVFleetRouting\examples\osm-sumo-macul\data\macul.net.xml"/>
    </output>

    <processing>
        <geometry.max-grade.fix value="false"/>
        <offset.disable-normalization value="true"/>
        <opposites.guess.fix-lengths value="true"/>
        <lefthand value="false"/>
    </processing>

    <junctions>
        <no-turnarounds value="true"/>
        <junctions.corner-detail value="5"/>
        <junctions.limit-turn-speed value="5.5"/>
        <rectangular-lane-cut value="false"/>
    </junctions>

    <pedestrian>
        <walkingareas value="false"/>
    </pedestrian>

    <netedit>
        <route-files value="C:\Users\jpfut\Proyectos\EVFleetRouting\examples\osm-sumo-macul\data\routes-simple.xml"/>
    </netedit>

</configuration>
-->

<routes>
    <flow id="flow_0" begin="0" from="774866095" to="774866082" end="280.00" vehsPerHour="1800"/>
    <flow id="flow_1" begin="0" from="774866203" to="774868393" end="280.00" vehsPerHour="2000"/>
</routes>
