<configuration xmlns:xsi="http://www.w3.org/2001/XMLSchema-instance" xsi:noNamespaceSchemaLocation="http://sumo.dlr.de/xsd/netconvertConfiguration.xsd">

    <input>
        <net-file value="macul.net.xml"/>
        <route-files value="routes-simple.rou.xml"/>
        <additional-files value="calibrator-generated.add.xml"/>
    </input>

    <time>
      <step-length value="0.2"/>
    </time>

</configuration>
